[TITLE]
;;Project Title/Notes
Lavaca_Sample

[OPTIONS]
;;Option             Value
FLOW_UNITS           CMS
INFILTRATION         HORTON
FLOW_ROUTING         KINWAVE
LINK_OFFSETS         DEPTH
MIN_SLOPE            0
ALLOW_PONDING        NO
SKIP_STEADY_STATE    NO

START_DATE           01/01/2000
START_TIME           00:00:00
REPORT_START_DATE    01/01/2000
REPORT_START_TIME    00:00:00
END_DATE       01/10/2000
END_TIME       12:00:00
SWEEP_START          01/01
SWEEP_END            12/31
DRY_DAYS             5
REPORT_STEP          00:05:00
WET_STEP             00:15:00
DRY_STEP             01:00:00
ROUTING_STEP         0:01:00 

INERTIAL_DAMPING     PARTIAL
NORMAL_FLOW_LIMITED  BOTH
FORCE_MAIN_EQUATION  D-W
VARIABLE_STEP        0.75
LENGTHENING_STEP     0
MIN_SURFAREA         12.557
MAX_TRIALS           8
HEAD_TOLERANCE       0.005
SYS_FLOW_TOL         5
LAT_FLOW_TOL         5
MINIMUM_STEP         0.5
THREADS              1

[EVAPORATION]
;;Data Source    Parameters
;;-------------- ----------------
CONSTANT         0.0
DRY_ONLY         NO

[JUNCTIONS]
;;Name           Elevation  MaxDepth   InitDepth  SurDepth   Aponded   
;;-------------- ---------- ---------- ---------- ---------- ----------
1520091_0      15.617      0      0.170      0      0
1520091_1      15.549      0      0.170      0      0
1520091_2      15.480      0      0.170      0      0
1520091_3      15.412      0      0.170      0      0
1520091_4      15.344      0      0.170      0      0
1520091_5      15.276      0      0.170      0      0
1520091_6      15.207      0      0.170      0      0
1520091_7      15.139      0      0.170      0      0
1520091_8      15.071      0      0.170      0      0
1520091_9      15.002      0      0.170      0      0
1520091_10      14.934      0      0.170      0      0
1520091_11      14.866      0      0.170      0      0
1520091_12      14.797      0      0.170      0      0
1520091_13      14.729      0      0.170      0      0
1520091_14      14.661      0      0.170      0      0
1520091_15      14.592      0      0.170      0      0
1520091_16      14.524      0      0.170      0      0
1520091_17      14.456      0      0.170      0      0
1520091_18      14.387      0      0.170      0      0
1520091_19      14.319      0      0.170      0      0
1520091_20      14.251      0      0.170      0      0
1520091_21      14.183      0      0.170      0      0
1520091_22      14.114      0      0.170      0      0
1520091_23      14.046      0      0.170      0      0
1520091_24      13.978      0      0.170      0      0
1520091_25      13.909      0      0.170      0      0
1520091_26      13.841      0      0.170      0      0
1520091_27      13.773      0      0.170      0      0
1520091_28      13.704      0      0.170      0      0
1520091_29      13.636      0      0.170      0      0
1520091_30      13.568      0      0.170      0      0
1520091_31      13.499      0      0.170      0      0
1520091_32      13.431      0      0.170      0      0
1520091_33      13.363      0      0.170      0      0
1520091_34      13.295      0      0.170      0      0
1520091_35      13.226      0      0.170      0      0
1520091_36      13.158      0      0.170      0      0
1520091_37      13.090      0      0.171      0      0
1520091_38      13.021      0      0.174      0      0
1520091_39      12.953      0      0.193      0      0
1520091_40      12.885      0      0.000      0      0
1520091_41      12.816      0      0.000      0      0
1520091_42      12.748      0      0.000      0      0
1520091_43      12.680      0      0.000      0      0
1520091_44      12.611      0      0.000      0      0
1520091_45      12.543      0      0.000      0      0
1520091_46      12.475      0      0.000      0      0
1520091_47      12.406      0      0.000      0      0
1520091_48      12.338      0      0.000      0      0
1520091_49      12.270      0      0.000      0      0
1520091_50      12.202      0      0.000      0      0
1520091_51      12.133      0      0.000      0      0
1520091_52      12.065      0      0.000      0      0
1520091_53      11.997      0      0.000      0      0
1520073_0      19.272      0      0.164      0      0
1520073_1      19.194      0      0.164      0      0
1520073_2      19.116      0      0.164      0      0
1520073_3      19.038      0      0.164      0      0
1520073_4      18.960      0      0.164      0      0
1520073_5      18.882      0      0.164      0      0
1520073_6      18.804      0      0.164      0      0
1520073_7      18.726      0      0.164      0      0
1520073_8      18.648      0      0.164      0      0
1520073_9      18.570      0      0.164      0      0
1520073_10      18.492      0      0.164      0      0
1520073_11      18.414      0      0.164      0      0
1520073_12      18.336      0      0.164      0      0
1520073_13      18.258      0      0.164      0      0
1520073_14      18.180      0      0.164      0      0
1520073_15      18.103      0      0.164      0      0
1520073_16      18.025      0      0.164      0      0
1520073_17      17.947      0      0.164      0      0
1520073_18      17.869      0      0.164      0      0
1520073_19      17.791      0      0.164      0      0
1520073_20      17.713      0      0.164      0      0
1520073_21      17.635      0      0.164      0      0
1520073_22      17.557      0      0.164      0      0
1520073_23      17.479      0      0.164      0      0
1520073_24      17.401      0      0.164      0      0
1520073_25      17.323      0      0.164      0      0
1520073_26      17.245      0      0.164      0      0
1520073_27      17.167      0      0.164      0      0
1520073_28      17.089      0      0.164      0      0
1520073_29      17.011      0      0.164      0      0
1520073_30      16.933      0      0.164      0      0
1520073_31      16.855      0      0.164      0      0
1520073_32      16.777      0      0.164      0      0
1520073_33      16.699      0      0.164      0      0
1520073_34      16.621      0      0.164      0      0
1520073_35      16.544      0      0.000      0      0
1520073_36      16.466      0      0.000      0      0
1520073_37      16.388      0      0.000      0      0
1520073_38      16.310      0      0.000      0      0
1520073_39      16.232      0      0.000      0      0
1520073_40      16.154      0      0.000      0      0
1520073_41      16.076      0      0.000      0      0
1520073_42      15.998      0      0.000      0      0
1520073_43      15.920      0      0.000      0      0
1520073_44      15.842      0      0.000      0      0
1520073_45      15.764      0      0.000      0      0
1520067_0      19.370      0      0.346      0      0
1520067_1      19.368      0      0.339      0      0
1520067_2      19.367      0      0.331      0      0
1520067_3      19.365      0      0.322      0      0
1520067_4      19.364      0      0.313      0      0
1520067_5      19.363      0      0.302      0      0
1520067_6      19.361      0      0.289      0      0
1520067_7      19.360      0      0.273      0      0
1520067_8      19.358      0      0.253      0      0
1520067_9      19.357      0      0.226      0      0
1520067_10      19.356      0      0.000      0      0
1520067_11      19.354      0      0.000      0      0
1520067_12      19.353      0      0.000      0      0
1520067_13      19.351      0      0.000      0      0
1519461_0      20.517      0      0.173      0      0
1519461_1      20.453      0      0.173      0      0
1519461_2      20.390      0      0.173      0      0
1519461_3      20.326      0      0.173      0      0
1519461_4      20.263      0      0.173      0      0
1519461_5      20.199      0      0.173      0      0
1519461_6      20.136      0      0.173      0      0
1519461_7      20.072      0      0.173      0      0
1519461_8      20.009      0      0.173      0      0
1519461_9      19.945      0      0.175      0      0
1519461_10      19.882      0      0.186      0      0
1519461_11      19.818      0      0.220      0      0
1519461_12      19.755      0      0.279      0      0
1519461_13      19.691      0      0.000      0      0
1519461_14      19.628      0      0.000      0      0
1519461_15      19.564      0      0.000      0      0
1519461_16      19.501      0      0.000      0      0
1519461_17      19.437      0      0.000      0      0
1519457_0      21.800      0      0.159      0      0
1519457_1      21.713      0      0.159      0      0
1519457_2      21.626      0      0.159      0      0
1519457_3      21.539      0      0.159      0      0
1519457_4      21.452      0      0.159      0      0
1519457_5      21.365      0      0.159      0      0
1519457_6      21.278      0      0.159      0      0
1519457_7      21.191      0      0.159      0      0
1519457_8      21.104      0      0.159      0      0
1519457_9      21.017      0      0.159      0      0
1519457_10      20.930      0      0.159      0      0
1519457_11      20.844      0      0.000      0      0
1519457_12      20.757      0      0.000      0      0
1519457_13      20.670      0      0.000      0      0
1520053_0      22.602      0      0.122      0      0
1520053_1      22.429      0      0.130      0      0
1520053_2      22.255      0      0.115      0      0
1520053_3      22.082      0      0.000      0      0
1520047_0      26.890      0      0.165      0      0
1520047_1      26.815      0      0.165      0      0
1520047_2      26.739      0      0.165      0      0
1520047_3      26.663      0      0.165      0      0
1520047_4      26.587      0      0.165      0      0
1520047_5      26.511      0      0.165      0      0
1520047_6      26.436      0      0.165      0      0
1520047_7      26.360      0      0.165      0      0
1520047_8      26.284      0      0.165      0      0
1520047_9      26.208      0      0.165      0      0
1520047_10      26.132      0      0.165      0      0
1520047_11      26.057      0      0.165      0      0
1520047_12      25.981      0      0.165      0      0
1520047_13      25.905      0      0.165      0      0
1520047_14      25.829      0      0.165      0      0
1520047_15      25.754      0      0.165      0      0
1520047_16      25.678      0      0.165      0      0
1520047_17      25.602      0      0.165      0      0
1520047_18      25.526      0      0.165      0      0
1520047_19      25.450      0      0.165      0      0
1520047_20      25.375      0      0.165      0      0
1520047_21      25.299      0      0.165      0      0
1520047_22      25.223      0      0.165      0      0
1520047_23      25.147      0      0.165      0      0
1520047_24      25.071      0      0.165      0      0
1520047_25      24.996      0      0.165      0      0
1520047_26      24.920      0      0.165      0      0
1520047_27      24.844      0      0.165      0      0
1520047_28      24.768      0      0.165      0      0
1520047_29      24.693      0      0.165      0      0
1520047_30      24.617      0      0.165      0      0
1520047_31      24.541      0      0.165      0      0
1520047_32      24.465      0      0.165      0      0
1520047_33      24.389      0      0.165      0      0
1520047_34      24.314      0      0.165      0      0
1520047_35      24.238      0      0.165      0      0
1520047_36      24.162      0      0.165      0      0
1520047_37      24.086      0      0.165      0      0
1520047_38      24.010      0      0.166      0      0
1520047_39      23.935      0      0.177      0      0
1520047_40      23.859      0      0.000      0      0
1520047_41      23.783      0      0.000      0      0
1520047_42      23.707      0      0.000      0      0
1520047_43      23.632      0      0.000      0      0
1520047_44      23.556      0      0.000      0      0
1520047_45      23.480      0      0.000      0      0
1520047_46      23.404      0      0.000      0      0
1520047_47      23.328      0      0.000      0      0
1520047_48      23.253      0      0.000      0      0
1520047_49      23.177      0      0.000      0      0
1520047_50      23.101      0      0.000      0      0
1520047_51      23.025      0      0.000      0      0
1520047_52      22.949      0      0.000      0      0
1520047_53      22.874      0      0.000      0      0
1520029_0      28.818      0      0.135      0      0
1520029_1      28.677      0      0.135      0      0
1520029_2      28.535      0      0.135      0      0
1520029_3      28.393      0      0.135      0      0
1520029_4      28.251      0      0.134      0      0
1520029_5      28.109      0      0.135      0      0
1520029_6      27.968      0      0.133      0      0
1520029_7      27.826      0      0.138      0      0
1520029_8      27.684      0      0.127      0      0
1520029_9      27.542      0      0.000      0      0
1520029_10      27.400      0      0.000      0      0
1520029_11      27.259      0      0.000      0      0
1520029_12      27.117      0      0.000      0      0
1520245_0      30.938      0      0.141      0      0
1520245_1      30.815      0      0.141      0      0
1520245_2      30.693      0      0.141      0      0
1520245_3      30.570      0      0.141      0      0
1520245_4      30.447      0      0.141      0      0
1520245_5      30.324      0      0.141      0      0
1520245_6      30.201      0      0.141      0      0
1520245_7      30.078      0      0.141      0      0
1520245_8      29.956      0      0.141      0      0
1520245_9      29.833      0      0.142      0      0
1520245_10      29.710      0      0.141      0      0
1520245_11      29.587      0      0.144      0      0
1520245_12      29.464      0      0.000      0      0
1520245_13      29.342      0      0.000      0      0
1520245_14      29.219      0      0.000      0      0
1520245_15      29.096      0      0.000      0      0
1520027_0      38.092      0      0.131      0      0
1520027_1      37.991      0      0.131      0      0
1520027_2      37.891      0      0.131      0      0
1520027_3      37.790      0      0.131      0      0
1520027_4      37.690      0      0.131      0      0
1520027_5      37.590      0      0.131      0      0
1520027_6      37.489      0      0.131      0      0
1520027_7      37.389      0      0.131      0      0
1520027_8      37.289      0      0.131      0      0
1520027_9      37.188      0      0.131      0      0
1520027_10      37.088      0      0.131      0      0
1520027_11      36.988      0      0.131      0      0
1520027_12      36.887      0      0.131      0      0
1520027_13      36.787      0      0.131      0      0
1520027_14      36.686      0      0.131      0      0
1520027_15      36.586      0      0.131      0      0
1520027_16      36.486      0      0.131      0      0
1520027_17      36.385      0      0.131      0      0
1520027_18      36.285      0      0.131      0      0
1520027_19      36.185      0      0.131      0      0
1520027_20      36.084      0      0.131      0      0
1520027_21      35.984      0      0.131      0      0
1520027_22      35.883      0      0.131      0      0
1520027_23      35.783      0      0.131      0      0
1520027_24      35.683      0      0.131      0      0
1520027_25      35.582      0      0.131      0      0
1520027_26      35.482      0      0.131      0      0
1520027_27      35.382      0      0.131      0      0
1520027_28      35.281      0      0.131      0      0
1520027_29      35.181      0      0.131      0      0
1520027_30      35.081      0      0.131      0      0
1520027_31      34.980      0      0.131      0      0
1520027_32      34.880      0      0.131      0      0
1520027_33      34.779      0      0.131      0      0
1520027_34      34.679      0      0.131      0      0
1520027_35      34.579      0      0.131      0      0
1520027_36      34.478      0      0.131      0      0
1520027_37      34.378      0      0.131      0      0
1520027_38      34.278      0      0.131      0      0
1520027_39      34.177      0      0.131      0      0
1520027_40      34.077      0      0.131      0      0
1520027_41      33.977      0      0.131      0      0
1520027_42      33.876      0      0.131      0      0
1520027_43      33.776      0      0.131      0      0
1520027_44      33.675      0      0.131      0      0
1520027_45      33.575      0      0.131      0      0
1520027_46      33.475      0      0.131      0      0
1520027_47      33.374      0      0.131      0      0
1520027_48      33.274      0      0.131      0      0
1520027_49      33.174      0      0.131      0      0
1520027_50      33.073      0      0.131      0      0
1520027_51      32.973      0      0.131      0      0
1520027_52      32.872      0      0.133      0      0
1520027_53      32.772      0      0.000      0      0
1520027_54      32.672      0      0.000      0      0
1520027_55      32.571      0      0.000      0      0
1520027_56      32.471      0      0.000      0      0
1520027_57      32.371      0      0.000      0      0
1520027_58      32.270      0      0.000      0      0
1520027_59      32.170      0      0.000      0      0
1520027_60      32.070      0      0.000      0      0
1520027_61      31.969      0      0.000      0      0
1520027_62      31.869      0      0.000      0      0
1520027_63      31.768      0      0.000      0      0
1520027_64      31.668      0      0.000      0      0
1520027_65      31.568      0      0.000      0      0
1520027_66      31.467      0      0.000      0      0
1520027_67      31.367      0      0.000      0      0
1520027_68      31.267      0      0.000      0      0
1520027_69      31.166      0      0.000      0      0
1520229_0      35.993      0      0.139      0      0
1520229_1      35.911      0      0.139      0      0
1520229_2      35.829      0      0.139      0      0
1520229_3      35.747      0      0.139      0      0
1520229_4      35.665      0      0.139      0      0
1520229_5      35.582      0      0.139      0      0
1520229_6      35.500      0      0.139      0      0
1520229_7      35.418      0      0.139      0      0
1520229_8      35.336      0      0.139      0      0
1520229_9      35.254      0      0.139      0      0
1520229_10      35.172      0      0.139      0      0
1520229_11      35.090      0      0.139      0      0
1520229_12      35.008      0      0.139      0      0
1520229_13      34.926      0      0.139      0      0
1520229_14      34.843      0      0.139      0      0
1520229_15      34.761      0      0.139      0      0
1520229_16      34.679      0      0.139      0      0
1520229_17      34.597      0      0.139      0      0
1520229_18      34.515      0      0.139      0      0
1520229_19      34.433      0      0.139      0      0
1520229_20      34.351      0      0.139      0      0
1520229_21      34.269      0      0.139      0      0
1520229_22      34.187      0      0.139      0      0
1520229_23      34.104      0      0.139      0      0
1520229_24      34.022      0      0.139      0      0
1520229_25      33.940      0      0.139      0      0
1520229_26      33.858      0      0.139      0      0
1520229_27      33.776      0      0.139      0      0
1520229_28      33.694      0      0.139      0      0
1520229_29      33.612      0      0.139      0      0
1520229_30      33.530      0      0.139      0      0
1520229_31      33.447      0      0.139      0      0
1520229_32      33.365      0      0.139      0      0
1520229_33      33.283      0      0.139      0      0
1520229_34      33.201      0      0.139      0      0
1520229_35      33.119      0      0.139      0      0
1520229_36      33.037      0      0.139      0      0
1520229_37      32.955      0      0.139      0      0
1520229_38      32.873      0      0.139      0      0
1520229_39      32.791      0      0.139      0      0
1520229_40      32.708      0      0.139      0      0
1520229_41      32.626      0      0.139      0      0
1520229_42      32.544      0      0.139      0      0
1520229_43      32.462      0      0.150      0      0
1520229_44      32.380      0      0.206      0      0
1520229_45      32.298      0      0.000      0      0
1520229_46      32.216      0      0.000      0      0
1520229_47      32.134      0      0.000      0      0
1520229_48      32.052      0      0.000      0      0
1520229_49      31.969      0      0.000      0      0
1520229_50      31.887      0      0.000      0      0
1520229_51      31.805      0      0.000      0      0
1520229_52      31.723      0      0.000      0      0
1520229_53      31.641      0      0.000      0      0
1520229_54      31.559      0      0.000      0      0
1520229_55      31.477      0      0.000      0      0
1520229_56      31.395      0      0.000      0      0
1520229_57      31.313      0      0.000      0      0
1520229_58      31.230      0      0.000      0      0
1520229_59      31.148      0      0.000      0      0
1519447_0      40.794      0      0.118      0      0
1519447_1      40.651      0      0.118      0      0
1519447_2      40.508      0      0.118      0      0
1519447_3      40.365      0      0.118      0      0
1519447_4      40.222      0      0.118      0      0
1519447_5      40.079      0      0.118      0      0
1519447_6      39.936      0      0.118      0      0
1519447_7      39.793      0      0.118      0      0
1519447_8      39.650      0      0.118      0      0
1519447_9      39.507      0      0.118      0      0
1519447_10      39.364      0      0.118      0      0
1519447_11      39.221      0      0.118      0      0
1519447_12      39.078      0      0.118      0      0
1519447_13      38.935      0      0.118      0      0
1519447_14      38.793      0      0.118      0      0
1519447_15      38.650      0      0.118      0      0
1519447_16      38.507      0      0.118      0      0
1519447_17      38.364      0      0.118      0      0
1519447_18      38.221      0      0.118      0      0
1519447_19      38.078      0      0.118      0      0
1519447_20      37.935      0      0.117      0      0
1519447_21      37.792      0      0.118      0      0
1519447_22      37.649      0      0.116      0      0
1519447_23      37.506      0      0.121      0      0
1519447_24      37.363      0      0.111      0      0
1519447_25      37.220      0      0.000      0      0
1519447_26      37.077      0      0.000      0      0
1519447_27      36.934      0      0.000      0      0
1519447_28      36.791      0      0.000      0      0
1519447_29      36.648      0      0.000      0      0
1519447_30      36.505      0      0.000      0      0
1519447_31      36.363      0      0.000      0      0
1519447_32      36.220      0      0.000      0      0
1520219_0      71.023      0      0.110      0      0
1520219_1      70.843      0      0.110      0      0
1520219_2      70.664      0      0.110      0      0
1520219_3      70.485      0      0.110      0      0
1520219_4      70.305      0      0.110      0      0
1520219_5      70.126      0      0.110      0      0
1520219_6      69.946      0      0.110      0      0
1520219_7      69.767      0      0.110      0      0
1520219_8      69.588      0      0.110      0      0
1520219_9      69.408      0      0.110      0      0
1520219_10      69.229      0      0.110      0      0
1520219_11      69.049      0      0.110      0      0
1520219_12      68.870      0      0.110      0      0
1520219_13      68.691      0      0.110      0      0
1520219_14      68.511      0      0.110      0      0
1520219_15      68.332      0      0.110      0      0
1520219_16      68.152      0      0.110      0      0
1520219_17      67.973      0      0.110      0      0
1520219_18      67.794      0      0.110      0      0
1520219_19      67.614      0      0.110      0      0
1520219_20      67.435      0      0.110      0      0
1520219_21      67.255      0      0.110      0      0
1520219_22      67.076      0      0.110      0      0
1520219_23      66.897      0      0.110      0      0
1520219_24      66.717      0      0.110      0      0
1520219_25      66.538      0      0.110      0      0
1520219_26      66.358      0      0.110      0      0
1520219_27      66.179      0      0.110      0      0
1520219_28      66.000      0      0.110      0      0
1520219_29      65.820      0      0.110      0      0
1520219_30      65.641      0      0.110      0      0
1520219_31      65.461      0      0.110      0      0
1520219_32      65.282      0      0.110      0      0
1520219_33      65.103      0      0.110      0      0
1520219_34      64.923      0      0.110      0      0
1520219_35      64.744      0      0.110      0      0
1520219_36      64.564      0      0.110      0      0
1520219_37      64.385      0      0.110      0      0
1520219_38      64.206      0      0.110      0      0
1520219_39      64.026      0      0.110      0      0
1520219_40      63.847      0      0.110      0      0
1520219_41      63.667      0      0.110      0      0
1520219_42      63.488      0      0.110      0      0
1520219_43      63.309      0      0.110      0      0
1520219_44      63.129      0      0.110      0      0
1520219_45      62.950      0      0.110      0      0
1520219_46      62.770      0      0.110      0      0
1520219_47      62.591      0      0.110      0      0
1520219_48      62.412      0      0.110      0      0
1520219_49      62.232      0      0.110      0      0
1520219_50      62.053      0      0.110      0      0
1520219_51      61.873      0      0.110      0      0
1520219_52      61.694      0      0.110      0      0
1520219_53      61.515      0      0.110      0      0
1520219_54      61.335      0      0.110      0      0
1520219_55      61.156      0      0.110      0      0
1520219_56      60.976      0      0.110      0      0
1520219_57      60.797      0      0.110      0      0
1520219_58      60.618      0      0.110      0      0
1520219_59      60.438      0      0.110      0      0
1520219_60      60.259      0      0.110      0      0
1520219_61      60.079      0      0.110      0      0
1520219_62      59.900      0      0.110      0      0
1520219_63      59.721      0      0.110      0      0
1520219_64      59.541      0      0.110      0      0
1520219_65      59.362      0      0.110      0      0
1520219_66      59.182      0      0.110      0      0
1520219_67      59.003      0      0.110      0      0
1520219_68      58.824      0      0.110      0      0
1520219_69      58.644      0      0.110      0      0
1520219_70      58.465      0      0.110      0      0
1520219_71      58.285      0      0.110      0      0
1520219_72      58.106      0      0.110      0      0
1520219_73      57.927      0      0.110      0      0
1520219_74      57.747      0      0.110      0      0
1520219_75      57.568      0      0.110      0      0
1520219_76      57.388      0      0.110      0      0
1520219_77      57.209      0      0.110      0      0
1520219_78      57.030      0      0.110      0      0
1520219_79      56.850      0      0.110      0      0
1520219_80      56.671      0      0.110      0      0
1520219_81      56.491      0      0.110      0      0
1520219_82      56.312      0      0.110      0      0
1520219_83      56.133      0      0.110      0      0
1520219_84      55.953      0      0.110      0      0
1520219_85      55.774      0      0.110      0      0
1520219_86      55.594      0      0.110      0      0
1520219_87      55.415      0      0.110      0      0
1520219_88      55.236      0      0.110      0      0
1520219_89      55.056      0      0.110      0      0
1520219_90      54.877      0      0.110      0      0
1520219_91      54.697      0      0.110      0      0
1520219_92      54.518      0      0.110      0      0
1520219_93      54.339      0      0.110      0      0
1520219_94      54.159      0      0.110      0      0
1520219_95      53.980      0      0.110      0      0
1520219_96      53.800      0      0.110      0      0
1520219_97      53.621      0      0.110      0      0
1520219_98      53.442      0      0.110      0      0
1520219_99      53.262      0      0.110      0      0
1520219_100      53.083      0      0.110      0      0
1520219_101      52.903      0      0.110      0      0
1520219_102      52.724      0      0.110      0      0
1520219_103      52.545      0      0.110      0      0
1520219_104      52.365      0      0.110      0      0
1520219_105      52.186      0      0.110      0      0
1520219_106      52.006      0      0.110      0      0
1520219_107      51.827      0      0.110      0      0
1520219_108      51.648      0      0.110      0      0
1520219_109      51.468      0      0.110      0      0
1520219_110      51.289      0      0.110      0      0
1520219_111      51.109      0      0.110      0      0
1520219_112      50.930      0      0.110      0      0
1520219_113      50.751      0      0.110      0      0
1520219_114      50.571      0      0.110      0      0
1520219_115      50.392      0      0.110      0      0
1520219_116      50.212      0      0.110      0      0
1520219_117      50.033      0      0.110      0      0
1520219_118      49.854      0      0.110      0      0
1520219_119      49.674      0      0.110      0      0
1520219_120      49.495      0      0.110      0      0
1520219_121      49.315      0      0.110      0      0
1520219_122      49.136      0      0.110      0      0
1520219_123      48.957      0      0.110      0      0
1520219_124      48.777      0      0.110      0      0
1520219_125      48.598      0      0.110      0      0
1520219_126      48.418      0      0.110      0      0
1520219_127      48.239      0      0.110      0      0
1520219_128      48.060      0      0.110      0      0