[TITLE]
;;Project Title/Notes
 Inverted syphon example from Vanslambrouck et al. (1986)

[OPTIONS]
;;Option             Value
FLOW_UNITS           CMS
INFILTRATION         HORTON
FLOW_ROUTING         DYNWAVE
LINK_OFFSETS         DEPTH
MIN_SLOPE            0
ALLOW_PONDING        NO
SKIP_STEADY_STATE    NO

START_DATE           01/01/1995
START_TIME           00:00:00
REPORT_START_DATE    01/01/1995
REPORT_START_TIME    00:00:00
END_DATE             01/01/1995
END_TIME             01:00:00
SWEEP_START          1/1
SWEEP_END            12/31
DRY_DAYS             0
REPORT_STEP          00:00:30
WET_STEP             00:01:00
DRY_STEP             24:00:00
ROUTING_STEP         0:00:30 

INERTIAL_DAMPING     PARTIAL
NORMAL_FLOW_LIMITED  FROUDE
FORCE_MAIN_EQUATION  H-W
VARIABLE_STEP        0.75
LENGTHENING_STEP     0
MIN_SURFAREA         0
MAX_TRIALS           0
HEAD_TOLERANCE       0
SYS_FLOW_TOL         5
LAT_FLOW_TOL         5
MINIMUM_STEP         0.5
THREADS              1

[EVAPORATION]
;;Data Source    Parameters
;;-------------- ----------------
CONSTANT         0.0
DRY_ONLY         NO

[JUNCTIONS]
;;Name           Elevation  MaxDepth   InitDepth  SurDepth   Aponded   
;;-------------- ---------- ---------- ---------- ---------- ----------
Inflow           91         9          0          0          0         
K4.2             75         25         0          0          0         
213              90         10         0          0          0         
215              85         15         0          0          0         
217              75         25         0          0          0         
219              75         25         0          0          0         

[OUTFALLS]
;;Name           Elevation  Type       Stage Data       Gated    Route To        
;;-------------- ---------- ---------- ---------------- -------- ----------------
Outfall          84         FREE                        NO                       

[STORAGE]
;;Name           Elev.    MaxDepth   InitDepth  Shape      Curve Name/Params            N/A      Fevap    Psi      Ksat     IMD     
;;-------------- -------- ---------- ----------- ---------- ---------------------------- -------- --------          -------- --------
K4.3             75       25         0          TABULAR    K4.3_ST                      13591.4  0       

[CONDUITS]
;;Name           From Node        To Node          Length     Roughness  InOffset   OutOffset  InitFlow   MaxFlow   
;;-------------- ---------------- ---------------- ---------- ---------- ---------- ---------- ---------- ----------
pipe1            Inflow           213              200        0.014      0          0          0          0         
pipe2            215              Outfall          100        0.014      0          0          0          0         
syphon           K4.3             K4.2             100        0.014      0          0          0          0         
down1            213              K4.3             100        0.014      0          0          0          0         
up1              K4.2             215              24         0.014      0          0          0          0         
down2            213              217              100        0.014      0          0          0          0         
syphon2          217              219              100        0.014      0          0          0          0         
up2              219              215              100        0.014      0          0          0          0         

[XSECTIONS]
;;Link           Shape        Geom1            Geom2      Geom3      Geom4      Barrels    Culvert   
;;-------------- ------------ ---------------- ---------- ---------- ---------- ---------- ----------
pipe1            CIRCULAR     3                0.0001     0          0          1                    
pipe2            CIRCULAR     3                0.0001     0          0          1                    
syphon           RECT_CLOSED  1.2              2          0          0          3                    
down1            CIRCULAR     2                0.0001     0          0          1                    
up1              CIRCULAR     2                0.0001     0          0          1                    
down2            CIRCULAR     2                0.0001     0          0          1                    
syphon2          RECT_CLOSED  1.2              2          0          0          1                    
up2              CIRCULAR     2                0.0001     0          0          1                    

[LOSSES]
;;Link           Kentry     Kexit      Kavg       Flap Gate  Seepage   
;;-------------- ---------- ---------- ---------- ---------- ----------
syphon           0          0          0.0        NO         0         

[INFLOWS]
;;Node           Constituent      Time Series      Type     Mfactor  Sfactor  Baseline Pattern
;;-------------- ---------------- ---------------- -------- -------- -------- -------- --------
Inflow           FLOW             Inflow           FLOW     1.0      1.0      1       
K4.2             FLOW             ""               FLOW     1.0      1.0      0.000000
213              FLOW             ""               FLOW     1.0      1.0      0.000000
215              FLOW             ""               FLOW     1.0      1.0      0.000000
217              FLOW             ""               FLOW     1.0      1.0      0.000000
219              FLOW             ""               FLOW     1.0      1.0      0.000000
Outfall          FLOW             ""               FLOW     1.0      1.0      0.000000
K4.3             FLOW             ""               FLOW     1.0      1.0      0.000000

[CURVES]
;;Name           Type       X-Value    Y-Value   
;;-------------- ---------- ---------- ----------
K4.3_ST          Storage    0          0         
K4.3_ST                     1          0         

[TIMESERIES]
;;Name           Date       Time       Value     
;;-------------- ---------- ---------- ----------
Inflow                      0          0         
Inflow                      0.5        25        
Inflow                      1          25        

[REPORT]
;;Reporting Options
INPUT      YES
CONTROLS   NO
SUBCATCHMENTS ALL
NODES ALL
LINKS ALL

[TAGS]

[MAP]
DIMENSIONS 680.064 451.623 847.047 520.788
Units      None

[COORDINATES]
;;Node           X-Coord            Y-Coord           
;;-------------- ------------------ ------------------
Inflow           687.898            517.489           
K4.2             783.895            473.732           
213              729.889            515.820           
215              790.910            506.297           
217              706.534            454.767           
219              807.465            456.141           
Outfall          839.457            507.049           
K4.3             731.629            473.880           

[VERTICES]
;;Link           X-Coord            Y-Coord           
;;-------------- ------------------ ------------------

