; Downloaded from OpenSWMM topic https://www.openswmm.org/Thread/9869/epanet2-vs-swmm5-for-pressure-network on 19-Nov-2018 07:04
;File: "EPANET-SWMM Hazen Williams comparison.inp"

[TITLE]
;;Project Title/Notes
SWMM-EPANET Comparison
Source:  https://www.openswmm.org/Topic/9869/epanet2-vs-swmm5-for-pressure-network

[OPTIONS]
;;Option             Value
FLOW_UNITS           GPM
INFILTRATION         HORTON
FLOW_ROUTING         DYNWAVE
LINK_OFFSETS         DEPTH
MIN_SLOPE            0
ALLOW_PONDING        NO
SKIP_STEADY_STATE    NO
START_DATE           07/29/2014
START_TIME           00:00:00
REPORT_START_DATE    07/29/2014
REPORT_START_TIME    00:00:00
END_DATE             07/29/2014
END_TIME             02:00:00
SWEEP_START          01/01
SWEEP_END            12/31
DRY_DAYS             0
REPORT_STEP          00:15:00
WET_STEP             00:05:00
DRY_STEP             01:00:00
ROUTING_STEP         0:00:10
INERTIAL_DAMPING     FULL
NORMAL_FLOW_LIMITED  BOTH
FORCE_MAIN_EQUATION  H-W
VARIABLE_STEP        0.00
LENGTHENING_STEP     0
MIN_SURFAREA         12.557
MAX_TRIALS           12
HEAD_TOLERANCE       0.01
SYS_FLOW_TOL         5
LAT_FLOW_TOL         5

[EVAPORATION]
;;Evap Data      Parameters
;;-------------- ----------------
CONSTANT         0.0
DRY_ONLY         NO

[JUNCTIONS]
;;Junction   Invert   Dmax   Dinit   Dsurch   Aponded
;;--------   ------   -----  -----   ------   -------
2            0        1000   2       0        0
3            0        1000   2       0        0
4            0        1000   2       0        0
5            0        1000   2       0        0
6            0        1000   2       0        0
7            0        1000   2       0        0
8            0        1000   2       0        0
9            0        1000   2       0        0

[OUTFALLS]
;;Outfall   Invert      Type        Stage Data         Gated
;;-------   ----------  ---------   ----------------   --------
1           0          FIXED      970                NO

[CONDUITS]
;;Conduit From Node To Node Length Roughness InOffset OutOffset InitFlow MaxFlow
;;------- --------- ------- ------ --------- -------- --------- -------- -------
1         1         3       200    0.01      0        0         0        0
2         3         2       400    0.01      0        0         0        0
3         3         4       400    0.01      0        0         0        0
4         2         5       400    0.01      0        0         0        0
5         3         6       400    0.01      0        0         0        0
6         4         7       400    0.01      0        0         0        0
7         5         8       400    0.01      0        0         0        0
8         5         6       400    0.01      0        0         0        0
9         6         7       400    0.01      0        0         0        0
10        6         9       400    0.01      0        0         0        0
11        8         9       400    0.01      0        0         0        0

[XSECTIONS]
;;Link           Shape        Geom1            Geom2      Geom3      Geom4      Barrels
;;-------------- ------------ ---------------- ---------- ---------- ---------- ----------
1                FORCE_MAIN   0.333            100        0          0          1         
2                FORCE_MAIN   0.333            100        0          0          1         
3                FORCE_MAIN   0.333            100        0          0          1         
4                FORCE_MAIN   0.333            100        0          0          1         
5                FORCE_MAIN   0.333            100        0          0          1         
6                FORCE_MAIN   0.333            100        0          0          1         
7                FORCE_MAIN   0.333            100        0          0          1         
8                FORCE_MAIN   0.333            100        0          0          1         
9                FORCE_MAIN   0.333            100        0          0          1         
10               FORCE_MAIN   0.333            100        0          0          1         
11               FORCE_MAIN   0.333            100        0          0          1          

[INFLOWS]
;;Node           Inflow           Time Series      Type     Funits   Fscale   Baseline Pattern
;;-------------- ---------------- ---------------- -------- -------- -------- -------- --------
2                FLOW             ""               FLOW     1.0      1.0      -150
3                FLOW             ""               FLOW     1.0      1.0      -150
4                FLOW             ""               FLOW     1.0      1.0      -100
5                FLOW             ""               FLOW     1.0      1.0      -150
6                FLOW             ""               FLOW     1.0      1.0      -200
8                FLOW             ""               FLOW     1.0      1.0      -100
9                FLOW             ""               FLOW     1.0      1.0      -100

[REPORT]
;;Reporting Options
INPUT      NO
CONTROLS   NO
SUBCATCHMENTS ALL
NODES ALL
LINKS ALL

[TAGS]

[MAP]
DIMENSIONS 0.000 0.000 10000.000 10000.000
Units      None

[COORDINATES]
;;Node           X-Coord            Y-Coord
;;-------------- ------------------ ------------------
2                2282.258           7161.290
3                4701.613           7177.419
4                6814.516           7193.548
5                2282.258           4935.484
6                4701.613           4935.484
7                6814.516           4935.484
8                2282.258           2661.290
9                4701.613           2661.290
1                4701.613           8596.774