[TITLE]
;;Project Title/Notes

[OPTIONS]
;;Option             Value
FLOW_UNITS           CFS
INFILTRATION         HORTON
FLOW_ROUTING         DYNWAVE
LINK_OFFSETS         DEPTH
MIN_SLOPE            0
ALLOW_PONDING        NO
SKIP_STEADY_STATE    NO

START_DATE           01/01/1988
START_TIME           00:00:00
REPORT_START_DATE    01/01/1988
REPORT_START_TIME    00:00:00
END_DATE             01/01/1988
END_TIME             02:30:00
SWEEP_START          01/01
SWEEP_END            12/31
DRY_DAYS             0
REPORT_STEP          00:00:30
WET_STEP             00:05:00
DRY_STEP             01:00:00
ROUTING_STEP         0:00:30 

INERTIAL_DAMPING     NONE
NORMAL_FLOW_LIMITED  SLOPE
FORCE_MAIN_EQUATION  D-W
VARIABLE_STEP        0.75
LENGTHENING_STEP     5
MIN_SURFAREA         400.0
MAX_TRIALS           8
HEAD_TOLERANCE       0.005
SYS_FLOW_TOL         5
LAT_FLOW_TOL         5
MINIMUM_STEP         0.5
THREADS              1

[FILES]
;;Interfacing Files
SAVE RUNOFF "C:\swmm_crada_files\OUTPUT.MST"

[EVAPORATION]
;;Data Source    Parameters
;;-------------- ----------------
CONSTANT         0.1
DRY_ONLY         NO

[JUNCTIONS]
;;Name           Elevation  MaxDepth   InitDepth  SurDepth   Aponded   
;;-------------- ---------- ---------- ---------- ---------- ----------
;* *    Junction data * *    JUN   GRELEV       Z  QINST    Y
n1000            5000.00    20.00      3.00       0          0         
n1001            4999.50    20.50      3.00       0          0         
n1002            4999.40    20.60      3.00       0          0         
n1003            4999.30    20.70      3.00       0          0         
n1004            4998.80    21.20      3.00       0          0         

[OUTFALLS]
;;Name           Elevation  Type       Stage Data       Gated    Route To        
;;-------------- ---------- ---------- ---------------- -------- ----------------
;*
n1005            4998.7     FREE                        NO                       
n2000            5010.0     FREE                        NO                       

[STORAGE]
;;Name           Elev.    MaxDepth   InitDepth  Shape      Curve Name/Params            N/A      Fevap    Psi      Ksat     IMD     
;;-------------- -------- ---------- ----------- ---------- ---------------------------- -------- --------          -------- --------
s3000            4999.4   20.6       5.0        FUNCTIONAL 600.0     0         0        0        0       

[CONDUITS]
;;Name           From Node        To Node          Length     Roughness  InOffset   OutOffset  InitFlow   MaxFlow   
;;-------------- ---------------- ---------------- ---------- ---------- ---------- ---------- ---------- ----------
;* *   Conduit data * *   NCOND  NJ1  NJ2     QO NKLASS AFULL DEEP  WIDE   LEN  ZP1     ZP2  ROUGH STHETA SPHI
c1000            n1000            n1001            5000.0     0.015      0.0        0.0        150.0      0         
c1001            n1001            n1002            1000.0     0.015      0.0        0.0        150.0      0         
c1002            n1002            n1003            1000.0     0.015      0.0        0.0        150.0      0         
c1003            n1003            n1004            5000.0     0.015      0.0        0.1        150.0      0         
c1004            n1004            n1005            1000.0     0.015      0.0        0.0        150.0      0         
;* *    Following conduit for off-line PS
c3000            n1002            s3000            100.0      0.015      0.0        0.0        150.0      0         

[PUMPS]
;;Name           From Node        To Node          Pump Curve       Status   Sartup Shutoff 
;;-------------- ---------------- ---------------- ---------------- ------ -------- --------
;* * IPTY NJUNC  NJUNC  PRATE1  PRATE2 PRATE3 VRATE1 VRATE2 VRATE3  VWELL  PON  POFF
PUMP1at3000-2000 s3000            n2000            PUMPCURVEforPUMP1at3000-2000 ON       0        0       

[XSECTIONS]
;;Link           Shape        Geom1            Geom2      Geom3      Geom4      Barrels    Culvert   
;;-------------- ------------ ---------------- ---------- ---------- ---------- ---------- ----------
c1000            TRAPEZOIDAL  20.0             10.0       0.0        0.0        1.0                  
c1001            TRAPEZOIDAL  20.0             10.0       0.0        0.0        1.0                  
c1002            TRAPEZOIDAL  20.0             10.0       0.0        0.0        1.0                  
c1003            TRAPEZOIDAL  20.0             10.0       0.0        0.0        1.0                  
c1004            TRAPEZOIDAL  20.0             10.0       0.0        0.0        1.0                  
c3000            CIRCULAR     10.0             0.0        0.0        0.0        1.0                  

[DWF]
;;Node           Constituent      Baseline   Patterns  
;;-------------- ---------------- ---------- ----------
n1000            FLOW             150       

[CURVES]
;;Name           Type       X-Value    Y-Value   
;;-------------- ---------- ---------- ----------
PUMPCURVEforPUMP1at3000-2000 PUMP1      3000.0     1.0       
PUMPCURVEforPUMP1at3000-2000            5000.0     50.0      
PUMPCURVEforPUMP1at3000-2000            6000.0     100.0     

[REPORT]
;;Reporting Options
INPUT      YES
CONTROLS   NO
SUBCATCHMENTS ALL
NODES ALL
LINKS ALL

[TAGS]
Node       n1000            1000            
Node       n1001            1001            
Node       n1002            1002            
Node       n1003            1003            
Node       n1004            1004            
Node       n1005            1005            
Node       n2000            2000            
Node       s3000            3000            
Link       c1000            1000            
Link       c1001            1001            
Link       c1002            1002            
Link       c1003            1003            
Link       c1004            1004            
Link       c3000            3000            

[MAP]
DIMENSIONS 1750959782.086 -3830129586.605 5963637237.622 1901075749.079
Units      None

[COORDINATES]
;;Node           X-Coord            Y-Coord           
;;-------------- ------------------ ------------------
n1000            5772151898.734     -3569620253.165   
n1001            4810126582.278     -2531645569.620   
n1002            4126582278.481     -1240506329.114   
n1003            3164556962.025     151898734.177     
n1004            2481012658.228     1518987341.772    
n1005            1942445120.974     1640566415.639    
n2000            2677555680.180     -892465149.816    
s3000            3430379746.836     -1937562089.408   

[VERTICES]
;;Link           X-Coord            Y-Coord           
;;-------------- ------------------ ------------------

