[TITLE]
;;Project Title/Notes
 EXTRAN USER''S MANUAL EXAMPLE PROBLEM 80 ISOL = 1 SOLUTION
 Flow thru a constricting pipe in the center

[OPTIONS]
;;Option             Value
FLOW_UNITS           CFS
INFILTRATION         HORTON
FLOW_ROUTING         DYNWAVE
LINK_OFFSETS         DEPTH
MIN_SLOPE            0
ALLOW_PONDING        NO
SKIP_STEADY_STATE    NO

START_DATE           01/01/1988
START_TIME           00:00:00
REPORT_START_DATE    01/01/1988
REPORT_START_TIME    00:00:00
END_DATE             01/01/1988
END_TIME             06:00:00
SWEEP_START          01/01
SWEEP_END            12/31
DRY_DAYS             0
REPORT_STEP          00:05:00
WET_STEP             00:15:00
DRY_STEP             01:00:00
ROUTING_STEP         0:00:10 

INERTIAL_DAMPING     PARTIAL
NORMAL_FLOW_LIMITED  SLOPE
FORCE_MAIN_EQUATION  H-W
VARIABLE_STEP        0.75
LENGTHENING_STEP     0
MIN_SURFAREA         12.557
MAX_TRIALS           8
HEAD_TOLERANCE       0.001
SYS_FLOW_TOL         5
LAT_FLOW_TOL         5
MINIMUM_STEP         0
THREADS              1

[FILES]
;;Interfacing Files

[EVAPORATION]
;;Data Source    Parameters
;;-------------- ----------------
CONSTANT         0.0
DRY_ONLY         NO

[JUNCTIONS]
;;Name           Elevation  MaxDepth   InitDepth  SurDepth   Aponded   
;;-------------- ---------- ---------- ---------- ---------- ----------
;                 Invert     Max.       Init.      Surcharge  Ponded
;Name             Elev.      Depth      Depth      Depth      Area
;------------------------------------------------------------------------
; *    JUNCTION DATA *    JUN   GRELEV   Z  QINST  Y
1                175.00     65.00      .00        .00        0         
2                174.50     65.50      .00        .00        0         
3                174.00     64.00      .00        .00        0         
4                173.50     44.50      .00        .00        0         
5                173.00     13.00      .00        .00        0         

[OUTFALLS]
;;Name           Elevation  Type       Stage Data       Gated    Route To        
;;-------------- ---------- ---------- ---------------- -------- ----------------
;                 Invert     Outfall      Stage/Table
;Name             Elev.      Type         Time Series
;----------------------------------------------------
6                172.50     FREE                        NO                       

[CONDUITS]
;;Name           From Node        To Node          Length     Roughness  InOffset   OutOffset  InitFlow   MaxFlow   
;;-------------- ---------------- ---------------- ---------- ---------- ---------- ---------- ---------- ----------
;                 Inlet            Outlet                      Manning    Inlet      Outlet     Init.
;Name             Node             Node             Length     N          Height     Height     Flow
;------------------------------------------------------------------------------------------------------------
; *   CONDUIT DATA *   NCOND NJ1  NJ2   QO  NKLASS AFULL DEEP WIDE LEN    ZP1  ZP2  ROUGH STHETA SPHI
1                1                2                1000       0.02       0          0          0          0         
2                2                3                1000       0.02       0          0          0          0         
3                3                4                1000       0.02       0          0          0          0         
4                4                5                1000       0.02       0          0          0          0         
5                5                6                1000       0.02       0          0          0          0         

[XSECTIONS]
;;Link           Shape        Geom1            Geom2      Geom3      Geom4      Barrels    Culvert   
;;-------------- ------------ ---------------- ---------- ---------- ---------- ---------- ----------
1                CIRCULAR     12               0          0          0          1                    
2                CIRCULAR     3                0          0          0          1                    
3                CIRCULAR     12               0          0          0          1                    
4                CIRCULAR     3                0          0          0          1                    
5                CIRCULAR     12               0          0          0          1                    

[INFLOWS]
;;Node           Constituent      Time Series      Type     Mfactor  Sfactor  Baseline Pattern
;;-------------- ---------------- ---------------- -------- -------- -------- -------- --------
1                FLOW             FLOW@1           FLOW     1.0      1.0              

[TIMESERIES]
;;Name           Date       Time       Value     
;;-------------- ---------- ---------- ----------
;Name             Date       Time       Value
;-------------------------------------------------
;Name             Date       Time       Value
FLOW@1           01/01/1988 00:00      0.00000   
FLOW@1                      00:15      40.00000  
FLOW@1                      03:00      40.00000  
FLOW@1                      06:00      0.00000   

[REPORT]
;;Reporting Options
INPUT      YES
CONTROLS   YES
SUBCATCHMENTS ALL
NODES ALL
LINKS ALL

[TAGS]

[MAP]
DIMENSIONS 750.000 945.000 6250.000 1055.000
Units      None

[COORDINATES]
;;Node           X-Coord            Y-Coord           
;;-------------- ------------------ ------------------
1                1000.000           1000.000          
2                2000.000           1000.000          
3                3000.000           1000.000          
4                4000.000           1000.000          
5                5000.000           1000.000          
6                6000.000           1000.000          

[VERTICES]
;;Link           X-Coord            Y-Coord           
;;-------------- ------------------ ------------------

