[TITLE]
;;Project Title/Notes
        Single Basin Model
        to Test the Surface,
        Groundwater, and
        Aquifer Routines of
        SWMM5

[OPTIONS]
;;Option             Value
FLOW_UNITS           CFS
INFILTRATION         GREEN_AMPT
FLOW_ROUTING         KINWAVE
LINK_OFFSETS         DEPTH
MIN_SLOPE            0
ALLOW_PONDING        YES
SKIP_STEADY_STATE    NO

START_DATE           02/15/1998
START_TIME           00:00:00
REPORT_START_DATE    02/15/1998
REPORT_START_TIME    00:00:00
END_DATE             02/28/1998
END_TIME             00:00:00
SWEEP_START          01/01
SWEEP_END            12/31
DRY_DAYS             0
REPORT_STEP          01:00:00
WET_STEP             00:05:00
DRY_STEP             00:05:00
ROUTING_STEP         0:05:00 

INERTIAL_DAMPING     PARTIAL
NORMAL_FLOW_LIMITED  FROUDE
FORCE_MAIN_EQUATION  H-W
VARIABLE_STEP        0.75
LENGTHENING_STEP     0
MIN_SURFAREA         0
MAX_TRIALS           0
HEAD_TOLERANCE       0
SYS_FLOW_TOL         5
LAT_FLOW_TOL         5
MINIMUM_STEP         0.5
THREADS              1

[EVAPORATION]
;;Data Source    Parameters
;;-------------- ----------------
MONTHLY          0.013  0.022  0.047  0.082  0.125  0.145  0.158  0.136  0.080  0.035  0.015  0.009 
DRY_ONLY         NO

[RAINGAGES]
;;Name           Format    Interval SCF      Source    
;;-------------- --------- ------ ------ ----------
RG1              VOLUME    1:00     1.0      TIMESERIES RG-PORT         

[SUBCATCHMENTS]
;;Name           Rain Gage        Outlet           Area     %Imperv  Width    %Slope   CurbLen  SnowPack        
;;-------------- ---------------- ---------------- -------- -------- -------- -------- -------- ----------------
Basin_10         RG1              2                31.3     16       149      2        0                        

[SUBAREAS]
;;Subcatchment   N-Imperv   N-Perv     S-Imperv   S-Perv     PctZero    RouteTo    PctRouted 
;;-------------- ---------- ---------- ---------- ---------- ---------- ---------- ----------
Basin_10         0.035      0.035      0.03       0.3        0          OUTLET    

[INFILTRATION]
;;Subcatchment   Suction    Ksat       IMD       
;;-------------- ---------- ---------- ----------
Basin_10         7.25       0.5        0.28      

[AQUIFERS]
;;Name           Por    WP     FC     Ksat   Kslope Tslope ETu    ETs    Seep   Ebot   Egw    Umc    ETupat 
;;-------------- ------ ------ ------ ------ ------ ------ ------ ------ ------ ------ ------ ------ ------
Aq-Basin_10      0.40   0.18   0.29   0.44   20     10     0      1      0      0.0    2.2    0.28         

[GROUNDWATER]
;;Subcatchment   Aquifer          Node             Esurf  A1     B1     A2     B2     A3     Dsw    Egwt   Ebot   Wgr    Umc   
;;-------------- ---------------- ---------------- ------ ------ ------ ------ ------ ------ ------ ------ ------ ------ ------
Basin_10         Aq-Basin_10      2                8.0    0.046  0.9    0.046  0.9    0      0      *     

[JUNCTIONS]
;;Name           Elevation  MaxDepth   InitDepth  SurDepth   Aponded   
;;-------------- ---------- ---------- ---------- ---------- ----------
2                4.2        9          0          0          0         

[TIMESERIES]
;;Name           Date       Time       Value     
;;-------------- ---------- ---------- ----------
;RAINFALL
RG-PORT          02/15/1998 0:00       0.00      
RG-PORT          02/15/1998 1:00       0.05      
RG-PORT          02/15/1998 2:00       0.05      
RG-PORT          02/15/1998 3:00       0.05      
RG-PORT          02/15/1998 4:00       0.05      
RG-PORT          02/15/1998 5:00       0.05      
RG-PORT          02/15/1998 6:00       0.05      
RG-PORT          02/15/1998 7:00       0.05      
RG-PORT          02/15/1998 8:00       0.05      
RG-PORT          02/15/1998 9:00       0.05      
RG-PORT          02/15/1998 10:00      0.05      
RG-PORT          02/15/1998 11:00      0.05      
RG-PORT          02/15/1998 12:00      0.05      
RG-PORT          02/15/1998 13:00      0.05      
RG-PORT          02/15/1998 14:00      0.05      
RG-PORT          02/15/1998 15:00      0.05      
RG-PORT          02/15/1998 16:00      0.05      
RG-PORT          02/15/1998 17:00      0.05      
RG-PORT          02/15/1998 18:00      0.05      
RG-PORT          02/15/1998 19:00      0.05      
RG-PORT          02/15/1998 20:00      0.05      
RG-PORT          02/15/1998 21:00      0.05      
RG-PORT          02/15/1998 22:00      0.05      
RG-PORT          02/15/1998 23:00      0.05      
RG-PORT          02/16/1998 0:00       0.05      
RG-PORT          02/16/1998 1:00       0.05      
RG-PORT          02/16/1998 2:00       0.05      
RG-PORT          02/16/1998 3:00       0.05      
RG-PORT          02/16/1998 4:00       0.05      
RG-PORT          02/16/1998 5:00       0.05      
RG-PORT          02/16/1998 6:00       0.05      
RG-PORT          02/16/1998 7:00       0.05      
RG-PORT          02/16/1998 8:00       0.05      
RG-PORT          02/16/1998 9:00       0.05      
RG-PORT          02/16/1998 10:00      0.05      
RG-PORT          02/16/1998 11:00      0.05      
RG-PORT          02/16/1998 12:00      0.05      
RG-PORT          02/16/1998 13:00      0.05      
RG-PORT          02/16/1998 14:00      0.05      
RG-PORT          02/16/1998 15:00      0.05      
RG-PORT          02/16/1998 16:00      0.05      
RG-PORT          02/16/1998 17:00      0.05      
RG-PORT          02/16/1998 18:00      0.05      
RG-PORT          02/16/1998 19:00      0.05      
RG-PORT          02/16/1998 20:00      0.05      
RG-PORT          02/16/1998 21:00      0.05      
RG-PORT          02/16/1998 22:00      0.05      
RG-PORT          02/16/1998 23:00      0.05      
RG-PORT          02/17/1998 0:00       0.05      
RG-PORT          02/17/1998 1:00       0.05      
RG-PORT          02/17/1998 2:00       0.05      
RG-PORT          02/17/1998 3:00       0.05      
RG-PORT          02/17/1998 4:00       0.05      
RG-PORT          02/17/1998 5:00       0.05      
RG-PORT          02/17/1998 6:00       0.05      
RG-PORT          02/17/1998 7:00       0.05      
RG-PORT          02/17/1998 8:00       0.05      
RG-PORT          02/17/1998 9:00       0.05      
RG-PORT          02/17/1998 10:00      0.05      
RG-PORT          02/17/1998 11:00      0.05      
RG-PORT          02/17/1998 12:00      0.05      
RG-PORT          02/17/1998 13:00      0.05      
RG-PORT          02/17/1998 14:00      0.05      
RG-PORT          02/17/1998 15:00      0.05      
RG-PORT          02/17/1998 16:00      0.05      
RG-PORT          02/17/1998 17:00      0.05      
RG-PORT          02/17/1998 18:00      0.05      
RG-PORT          02/17/1998 19:00      0.05      
RG-PORT          02/17/1998 20:00      0.05      
RG-PORT          02/17/1998 21:00      0.05      
RG-PORT          02/17/1998 22:00      0.05      
RG-PORT          02/17/1998 23:00      0.05      
RG-PORT          02/18/1998 0:00       0.05      
RG-PORT          02/18/1998 1:00       0.05      
RG-PORT          02/18/1998 2:00       0.05      
RG-PORT          02/18/1998 3:00       0.05      
RG-PORT          02/18/1998 4:00       0.05      
RG-PORT          02/18/1998 5:00       0.05      
RG-PORT          02/18/1998 6:00       0.05      
RG-PORT          02/18/1998 7:00       0.05      
RG-PORT          02/18/1998 8:00       0.05      
RG-PORT          02/18/1998 9:00       0.05      
RG-PORT          02/18/1998 10:00      0.05      
RG-PORT          02/18/1998 11:00      0.05      
RG-PORT          02/18/1998 12:00      0.05      
RG-PORT          02/18/1998 13:00      0.05      
RG-PORT          02/18/1998 14:00      0.05      
RG-PORT          02/18/1998 15:00      0.05      
RG-PORT          02/18/1998 16:00      0.05      
RG-PORT          02/18/1998 17:00      0.05      
RG-PORT          02/18/1998 18:00      0.05      
RG-PORT          02/18/1998 19:00      0.05      
RG-PORT          02/18/1998 20:00      0.05      
RG-PORT          02/18/1998 21:00      0.05      
RG-PORT          02/18/1998 22:00      0.05      
RG-PORT          02/18/1998 23:00      0.05      
RG-PORT          02/19/1998 0:00       0.05      
RG-PORT          02/19/1998 1:00       0.05      
RG-PORT          02/19/1998 2:00       0.05      
RG-PORT          02/19/1998 3:00       0.05      
RG-PORT          02/19/1998 4:00       0.05      
RG-PORT          02/19/1998 5:00       0.05      
RG-PORT          02/19/1998 6:00       0.05      
RG-PORT          02/19/1998 7:00       0.05      
RG-PORT          02/19/1998 8:00       0.05      
RG-PORT          02/19/1998 9:00       0.05      
RG-PORT          02/19/1998 10:00      0.05      
RG-PORT          02/19/1998 11:00      0.05      
RG-PORT          02/19/1998 12:00      0.05      
RG-PORT          02/19/1998 13:00      0.05      
RG-PORT          02/19/1998 14:00      0.05      
RG-PORT          02/19/1998 15:00      0.05      
RG-PORT          02/19/1998 16:00      0.05      
RG-PORT          02/19/1998 17:00      0.05      
RG-PORT          02/19/1998 18:00      0.05      
RG-PORT          02/19/1998 19:00      0.05      
RG-PORT          02/19/1998 20:00      0.05      
RG-PORT          02/19/1998 21:00      0.05      
RG-PORT          02/19/1998 22:00      0.05      
RG-PORT          02/19/1998 23:00      0.05      
RG-PORT          02/20/1998 0:00       0.03      
RG-PORT          02/20/1998 1:00       0.05      
RG-PORT          02/20/1998 2:00       0.00      
RG-PORT          02/20/1998 3:00       0.00      
RG-PORT          02/20/1998 4:00       0.00      
RG-PORT          02/20/1998 5:00       0.00      
RG-PORT          02/20/1998 6:00       0.00      
RG-PORT          02/20/1998 7:00       0.00      
RG-PORT          02/20/1998 8:00       0.00      
RG-PORT          02/20/1998 9:00       0.00      
RG-PORT          02/20/1998 10:00      0.00      
RG-PORT          02/20/1998 11:00      0.00      
RG-PORT          02/20/1998 12:00      0.00      
RG-PORT          02/20/1998 13:00      0.00      
RG-PORT          02/20/1998 14:00      0.00      
RG-PORT          02/20/1998 15:00      0.00      
RG-PORT          02/20/1998 16:00      0.00      
RG-PORT          02/20/1998 17:00      0.00      
RG-PORT          02/20/1998 18:00      0.00      
RG-PORT          02/20/1998 19:00      0.00      
RG-PORT          02/20/1998 20:00      0.00      
RG-PORT          02/20/1998 21:00      0.00      
RG-PORT          02/20/1998 22:00      0.00      
RG-PORT          02/20/1998 23:00      0.00      
RG-PORT          02/21/1998 0:00       0.00      
RG-PORT          02/21/1998 1:00       0.00      
RG-PORT          02/21/1998 2:00       0.00      
RG-PORT          02/21/1998 3:00       0.00      
RG-PORT          02/21/1998 4:00       0.01      
RG-PORT          02/21/1998 5:00       0.00      
RG-PORT          02/21/1998 6:00       0.02      
RG-PORT          02/21/1998 7:00       0.00      
RG-PORT          02/21/1998 8:00       0.02      
RG-PORT          02/21/1998 9:00       0.04      
RG-PORT          02/21/1998 10:00      0.14      
RG-PORT          02/21/1998 11:00      0.24      
RG-PORT          02/21/1998 12:00      0.08      
RG-PORT          02/21/1998 13:00      0.08      
RG-PORT          02/21/1998 14:00      0.01      
RG-PORT          02/21/1998 15:00      0.08      
RG-PORT          02/21/1998 16:00      0.03      
RG-PORT          02/21/1998 17:00      0.00      
RG-PORT          02/21/1998 18:00      0.00      
RG-PORT          02/21/1998 19:00      0.00      
RG-PORT          02/21/1998 20:00      0.00      
RG-PORT          02/21/1998 21:00      0.00      
RG-PORT          02/21/1998 22:00      0.00      
RG-PORT          02/21/1998 23:00      0.00      
RG-PORT          02/22/1998 0:00       0.00      
RG-PORT          02/22/1998 1:00       0.00      
RG-PORT          02/22/1998 2:00       0.00      
RG-PORT          02/22/1998 3:00       0.00      
RG-PORT          02/22/1998 4:00       0.00      
RG-PORT          02/22/1998 5:00       0.00      
RG-PORT          02/22/1998 6:00       0.00      
RG-PORT          02/22/1998 7:00       0.02      
RG-PORT          02/22/1998 8:00       0.01      
RG-PORT          02/22/1998 9:00       0.00      
RG-PORT          02/22/1998 10:00      0.00      
RG-PORT          02/22/1998 11:00      0.00      
RG-PORT          02/22/1998 12:00      0.00      
RG-PORT          02/22/1998 13:00      0.00      
RG-PORT          02/22/1998 14:00      0.00      
RG-PORT          02/22/1998 15:00      0.00      
RG-PORT          02/22/1998 16:00      0.00      
RG-PORT          02/22/1998 17:00      0.00      
RG-PORT          02/22/1998 18:00      0.00      
RG-PORT          02/22/1998 19:00      0.00      
RG-PORT          02/22/1998 20:00      0.00      
RG-PORT          02/22/1998 21:00      0.00      
RG-PORT          02/22/1998 22:00      0.00      
RG-PORT          02/22/1998 23:00      0.00      
RG-PORT          02/23/1998 0:00       0.00      
RG-PORT          02/23/1998 1:00       0.00      
RG-PORT          02/23/1998 2:00       0.00      
RG-PORT          02/23/1998 3:00       0.00      
RG-PORT          02/23/1998 4:00       0.00      
RG-PORT          02/23/1998 5:00       0.00      
RG-PORT          02/23/1998 6:00       0.19      
RG-PORT          02/23/1998 7:00       0.03      
RG-PORT          02/23/1998 8:00       0.17      
RG-PORT          02/23/1998 9:00       0.17      
RG-PORT          02/23/1998 10:00      0.05      
RG-PORT          02/23/1998 11:00      0.02      
RG-PORT          02/23/1998 12:00      0.01      
RG-PORT          02/23/1998 13:00      0.00      
RG-PORT          02/23/1998 14:00      0.00      
RG-PORT          02/23/1998 15:00      0.00      
RG-PORT          02/23/1998 16:00      0.00      
RG-PORT          02/23/1998 17:00      0.00      
RG-PORT          02/23/1998 18:00      0.00      
RG-PORT          02/23/1998 19:00      0.00      
RG-PORT          02/23/1998 20:00      0.00      
RG-PORT          02/23/1998 21:00      0.00      
RG-PORT          02/23/1998 22:00      0.00      
RG-PORT          02/23/1998 23:00      0.00      
RG-PORT          02/24/1998 0:00       0.00      
RG-PORT          02/24/1998 1:00       0.00      
RG-PORT          02/24/1998 2:00       0.00      
RG-PORT          02/24/1998 3:00       0.00      
RG-PORT          02/24/1998 4:00       0.00      
RG-PORT          02/24/1998 5:00       0.00      
RG-PORT          02/24/1998 6:00       0.00      
RG-PORT          02/24/1998 7:00       0.00      
RG-PORT          02/24/1998 8:00       0.00      
RG-PORT          02/24/1998 9:00       0.00      
RG-PORT          02/24/1998 10:00      0.00      
RG-PORT          02/24/1998 11:00      0.00      
RG-PORT          02/24/1998 12:00      0.00      
RG-PORT          02/24/1998 13:00      0.00      
RG-PORT          02/24/1998 14:00      0.00      
RG-PORT          02/24/1998 15:00      0.00      
RG-PORT          02/24/1998 16:00      0.00      
RG-PORT          02/24/1998 17:00      0.00      
RG-PORT          02/24/1998 18:00      0.00      
RG-PORT          02/24/1998 19:00      0.00      
RG-PORT          02/24/1998 20:00      0.00      
RG-PORT          02/24/1998 21:00      0.00      
RG-PORT          02/24/1998 22:00      0.00      
RG-PORT          02/24/1998 23:00      0.00      
RG-PORT          02/25/1998 0:00       0.00      
RG-PORT          02/25/1998 1:00       0.00      
RG-PORT          02/25/1998 2:00       0.00      
RG-PORT          02/25/1998 3:00       0.00      
RG-PORT          02/25/1998 4:00       0.00      
RG-PORT          02/25/1998 5:00       0.00      
RG-PORT          02/25/1998 6:00       0.00      
RG-PORT          02/25/1998 7:00       0.01      
RG-PORT          02/25/1998 8:00       0.00      
RG-PORT          02/25/1998 9:00       0.00      
RG-PORT          02/25/1998 10:00      0.00      
RG-PORT          02/25/1998 11:00      0.00      
RG-PORT          02/25/1998 12:00      0.00      
RG-PORT          02/25/1998 13:00      0.04      
RG-PORT          02/25/1998 14:00      0.05      
RG-PORT          02/25/1998 15:00      0.00      
RG-PORT          02/25/1998 16:00      0.01      
RG-PORT          02/25/1998 17:00      0.00      
RG-PORT          02/25/1998 18:00      0.00      
RG-PORT          02/25/1998 19:00      0.00      
RG-PORT          02/25/1998 20:00      0.00      
RG-PORT          02/25/1998 21:00      0.00      
RG-PORT          02/25/1998 22:00      0.00      
RG-PORT          02/25/1998 23:00      0.00      
RG-PORT          02/26/1998 0:00       0.00      
RG-PORT          02/26/1998 1:00       0.00      
RG-PORT          02/26/1998 2:00       0.00      
RG-PORT          02/26/1998 3:00       0.00      
RG-PORT          02/26/1998 4:00       0.00      
RG-PORT          02/26/1998 5:00       0.00      
RG-PORT          02/26/1998 6:00       0.00      
RG-PORT          02/26/1998 7:00       0.00      
RG-PORT          02/26/1998 8:00       0.00      
RG-PORT          02/26/1998 9:00       0.00      
RG-PORT          02/26/1998 10:00      0.00      
RG-PORT          02/26/1998 11:00      0.00      
RG-PORT          02/26/1998 12:00      0.00      
RG-PORT          02/26/1998 13:00      0.00      
RG-PORT          02/26/1998 14:00      0.00      
RG-PORT          02/26/1998 15:00      0.00      
RG-PORT          02/26/1998 16:00      0.00      
RG-PORT          02/26/1998 17:00      0.00      
RG-PORT          02/26/1998 18:00      0.00      
RG-PORT          02/26/1998 19:00      0.00      
RG-PORT          02/26/1998 20:00      0.02      
RG-PORT          02/26/1998 21:00      0.01      
RG-PORT          02/26/1998 22:00      0.00      
RG-PORT          02/26/1998 23:00      0.00      
RG-PORT          02/27/1998 0:00       0.00      
RG-PORT          02/27/1998 1:00       0.00      
RG-PORT          02/27/1998 2:00       0.00      
RG-PORT          02/27/1998 3:00       0.00      
RG-PORT          02/27/1998 4:00       0.00      
RG-PORT          02/27/1998 5:00       0.00      
RG-PORT          02/27/1998 6:00       0.00      
RG-PORT          02/27/1998 7:00       0.00      
RG-PORT          02/27/1998 8:00       0.01      
RG-PORT          02/27/1998 9:00       0.00      
RG-PORT          02/27/1998 10:00      0.00      
RG-PORT          02/27/1998 11:00      0.00      
RG-PORT          02/27/1998 12:00      0.00      
RG-PORT          02/27/1998 13:00      0.00      
RG-PORT          02/27/1998 14:00      0.00      
RG-PORT          02/27/1998 15:00      0.00      
RG-PORT          02/27/1998 16:00      0.00      
RG-PORT          02/27/1998 17:00      0.00      
RG-PORT          02/27/1998 18:00      0.00      
RG-PORT          02/27/1998 19:00      0.00      
RG-PORT          02/27/1998 20:00      0.00      
RG-PORT          02/27/1998 21:00      0.00      
RG-PORT          02/27/1998 22:00      0.00      
RG-PORT          02/27/1998 23:00      0.00      
RG-PORT          02/28/1998 0:00       0.00      
RG-PORT          02/28/1998 1:00       0.00      
RG-PORT          02/28/1998 2:00       0.00      
RG-PORT          02/28/1998 3:00       0.00      
RG-PORT          02/28/1998 4:00       0.00      
RG-PORT          02/28/1998 5:00       0.00      
RG-PORT          02/28/1998 6:00       0.00      
RG-PORT          02/28/1998 7:00       0.00      
RG-PORT          02/28/1998 8:00       0.00      
RG-PORT          02/28/1998 9:00       0.00      
RG-PORT          02/28/1998 10:00      0.00      
RG-PORT          02/28/1998 11:00      0.00      
RG-PORT          02/28/1998 12:00      0.00      
RG-PORT          02/28/1998 13:00      0.00      
RG-PORT          02/28/1998 14:00      0.00      
RG-PORT          02/28/1998 15:00      0.00      
RG-PORT          02/28/1998 16:00      0.00      
RG-PORT          02/28/1998 17:00      0.00      
RG-PORT          02/28/1998 18:00      0.00      
RG-PORT          02/28/1998 19:00      0.00      
RG-PORT          02/28/1998 20:00      0.00      
RG-PORT          02/28/1998 21:00      0.00      
RG-PORT          02/28/1998 22:00      0.00      
RG-PORT          02/28/1998 23:00      0.00      
RG-PORT          03/01/1998 0:00       0.00      
RG-PORT          03/01/1998 1:00       0.00      
RG-PORT          03/01/1998 2:00       0.00      
RG-PORT          03/01/1998 3:00       0.00      
RG-PORT          03/01/1998 4:00       0.00      
RG-PORT          03/01/1998 5:00       0.00      
RG-PORT          03/01/1998 6:00       0.00      
RG-PORT          03/01/1998 7:00       0.00      
RG-PORT          03/01/1998 8:00       0.00      
RG-PORT          03/01/1998 9:00       0.00      
RG-PORT          03/01/1998 10:00      0.00      
RG-PORT          03/01/1998 11:00      0.00      
RG-PORT          03/01/1998 12:00      0.00      
RG-PORT          03/01/1998 13:00      0.00      
RG-PORT          03/01/1998 14:00      0.00      
RG-PORT          03/01/1998 15:00      0.00      
RG-PORT          03/01/1998 16:00      0.00      
RG-PORT          03/01/1998 17:00      0.00      
RG-PORT          03/01/1998 18:00      0.00      
RG-PORT          03/01/1998 19:00      0.00      
RG-PORT          03/01/1998 20:00      0.00      
RG-PORT          03/01/1998 21:00      0.00      
RG-PORT          03/01/1998 22:00      0.00      
RG-PORT          03/01/1998 23:00      0.00      
RG-PORT          03/02/1998 0:00       0.00      
RG-PORT          03/02/1998 1:00       0.00      
RG-PORT          03/02/1998 2:00       0.00      
RG-PORT          03/02/1998 3:00       0.00      
RG-PORT          03/02/1998 4:00       0.00      
RG-PORT          03/02/1998 5:00       0.00      
RG-PORT          03/02/1998 6:00       0.00      
RG-PORT          03/02/1998 7:00       0.00      
RG-PORT          03/02/1998 8:00       0.00      
RG-PORT          03/02/1998 9:00       0.00      
RG-PORT          03/02/1998 10:00      0.00      
RG-PORT          03/02/1998 11:00      0.00      
RG-PORT          03/02/1998 12:00      0.00      
RG-PORT          03/02/1998 13:00      0.00      
RG-PORT          03/02/1998 14:00      0.00      
RG-PORT          03/02/1998 15:00      0.00      
RG-PORT          03/02/1998 16:00      0.00      
RG-PORT          03/02/1998 17:00      0.02      
RG-PORT          03/02/1998 18:00      0.00      
RG-PORT          03/02/1998 19:00      0.01      
RG-PORT          03/02/1998 20:00      0.01      
RG-PORT          03/02/1998 21:00      0.03      
RG-PORT          03/02/1998 22:00      0.01      
RG-PORT          03/02/1998 23:00      0.01      
RG-PORT          03/03/1998 0:00       0.00      
RG-PORT          03/03/1998 1:00       0.00      
RG-PORT          03/03/1998 2:00       0.00      
RG-PORT          03/03/1998 3:00       0.00      
RG-PORT          03/03/1998 4:00       0.00      
RG-PORT          03/03/1998 5:00       0.00      
RG-PORT          03/03/1998 6:00       0.00      
RG-PORT          03/03/1998 7:00       0.00      
RG-PORT          03/03/1998 8:00       0.00      
RG-PORT          03/03/1998 9:00       0.00      
RG-PORT          03/03/1998 10:00      0.00      
RG-PORT          03/03/1998 11:00      0.00      
RG-PORT          03/03/1998 12:00      0.00      
RG-PORT          03/03/1998 13:00      0.00      
RG-PORT          03/03/1998 14:00      0.00      
RG-PORT          03/03/1998 15:00      0.00      
RG-PORT          03/03/1998 16:00      0.00      
RG-PORT          03/03/1998 17:00      0.00      
RG-PORT          03/03/1998 18:00      0.00      
RG-PORT          03/03/1998 19:00      0.00      
RG-PORT          03/03/1998 20:00      0.00      
RG-PORT          03/03/1998 21:00      0.00      
RG-PORT          03/03/1998 22:00      0.00      
RG-PORT          03/03/1998 23:00      0.00      
RG-PORT          03/04/1998 0:00       0.00      
RG-PORT          03/04/1998 1:00       0.00      
RG-PORT          03/04/1998 2:00       0.00      
RG-PORT          03/04/1998 3:00       0.00      
RG-PORT          03/04/1998 4:00       0.00      
RG-PORT          03/04/1998 5:00       0.00      
RG-PORT          03/04/1998 6:00       0.00      
RG-PORT          03/04/1998 7:00       0.00      
RG-PORT          03/04/1998 8:00       0.00      
RG-PORT          03/04/1998 9:00       0.00      
RG-PORT          03/04/1998 10:00      0.00      
RG-PORT          03/04/1998 11:00      0.00      
RG-PORT          03/04/1998 12:00      0.00      
RG-PORT          03/04/1998 13:00      0.00      
RG-PORT          03/04/1998 14:00      0.00      
RG-PORT          03/04/1998 15:00      0.00      
RG-PORT          03/04/1998 16:00      0.00      
RG-PORT          03/04/1998 17:00      0.00      
RG-PORT          03/04/1998 18:00      0.00      
RG-PORT          03/04/1998 19:00      0.00      
RG-PORT          03/04/1998 20:00      0.00      
RG-PORT          03/04/1998 21:00      0.00      
RG-PORT          03/04/1998 22:00      0.00      
RG-PORT          03/04/1998 23:00      0.00      
RG-PORT          03/05/1998 0:00       0.00      
RG-PORT          03/05/1998 1:00       0.00      
RG-PORT          03/05/1998 2:00       0.00      
RG-PORT          03/05/1998 3:00       0.00      
RG-PORT          03/05/1998 4:00       0.00      
RG-PORT          03/05/1998 5:00       0.00      
RG-PORT          03/05/1998 6:00       0.00      
RG-PORT          03/05/1998 7:00       0.00      
RG-PORT          03/05/1998 8:00       0.00      
RG-PORT          03/05/1998 9:00       0.00      
RG-PORT          03/05/1998 10:00      0.00      
RG-PORT          03/05/1998 11:00      0.02      
RG-PORT          03/05/1998 12:00      0.02      
RG-PORT          03/05/1998 13:00      0.05      
RG-PORT          03/05/1998 14:00      0.01      
RG-PORT          03/05/1998 15:00      0.03      
RG-PORT          03/05/1998 16:00      0.00      
RG-PORT          03/05/1998 17:00      0.00      
RG-PORT          03/05/1998 18:00      0.00      
RG-PORT          03/05/1998 19:00      0.07      
RG-PORT          03/05/1998 20:00      0.01      
RG-PORT          03/05/1998 21:00      0.01      
RG-PORT          03/05/1998 22:00      0.00      
RG-PORT          03/05/1998 23:00      0.00      
RG-PORT          03/06/1998 0:00       0.00      
RG-PORT          03/06/1998 1:00       0.00      
RG-PORT          03/06/1998 2:00       0.00      
RG-PORT          03/06/1998 3:00       0.00      
RG-PORT          03/06/1998 4:00       0.00      
RG-PORT          03/06/1998 5:00       0.00      
RG-PORT          03/06/1998 6:00       0.00      
RG-PORT          03/06/1998 7:00       0.00      
RG-PORT          03/06/1998 8:00       0.00      
RG-PORT          03/06/1998 9:00       0.00      
RG-PORT          03/06/1998 10:00      0.00      
RG-PORT          03/06/1998 11:00      0.00      
RG-PORT          03/06/1998 12:00      0.00      
RG-PORT          03/06/1998 13:00      0.00      
RG-PORT          03/06/1998 14:00      0.00      
RG-PORT          03/06/1998 15:00      0.00      
RG-PORT          03/06/1998 16:00      0.00      
RG-PORT          03/06/1998 17:00      0.00      
RG-PORT          03/06/1998 18:00      0.00      
RG-PORT          03/06/1998 19:00      0.00      
RG-PORT          03/06/1998 20:00      0.00      
RG-PORT          03/06/1998 21:00      0.00      
RG-PORT          03/06/1998 22:00      0.00      
RG-PORT          03/06/1998 23:00      0.00      
RG-PORT          03/07/1998 0:00       0.00      
RG-PORT          03/07/1998 1:00       0.00      
RG-PORT          03/07/1998 2:00       0.00      
RG-PORT          03/07/1998 3:00       0.00      
RG-PORT          03/07/1998 4:00       0.00      
RG-PORT          03/07/1998 5:00       0.00      
RG-PORT          03/07/1998 6:00       0.00      
RG-PORT          03/07/1998 7:00       0.00      
RG-PORT          03/07/1998 8:00       0.00      
RG-PORT          03/07/1998 9:00       0.00      
RG-PORT          03/07/1998 10:00      0.00      
RG-PORT          03/07/1998 11:00      0.00      
RG-PORT          03/07/1998 12:00      0.00      
RG-PORT          03/07/1998 13:00      0.00      
RG-PORT          03/07/1998 14:00      0.00      
RG-PORT          03/07/1998 15:00      0.02      
RG-PORT          03/07/1998 16:00      0.03      
RG-PORT          03/07/1998 17:00      0.02      
RG-PORT          03/07/1998 18:00      0.02      
RG-PORT          03/07/1998 19:00      0.00      
RG-PORT          03/07/1998 20:00      0.00      
RG-PORT          03/07/1998 21:00      0.00      
RG-PORT          03/07/1998 22:00      0.00      
RG-PORT          03/07/1998 23:00      0.01      
RG-PORT          03/08/1998 0:00       0.00      
RG-PORT          03/08/1998 1:00       0.00      
RG-PORT          03/08/1998 2:00       0.00      
RG-PORT          03/08/1998 3:00       0.00      
RG-PORT          03/08/1998 4:00       0.00      
RG-PORT          03/08/1998 5:00       0.00      
RG-PORT          03/08/1998 6:00       0.00      
RG-PORT          03/08/1998 7:00       0.00      
RG-PORT          03/08/1998 8:00       0.00      
RG-PORT          03/08/1998 9:00       0.00      
RG-PORT          03/08/1998 10:00      0.00      
RG-PORT          03/08/1998 11:00      0.00      
RG-PORT          03/08/1998 12:00      0.00      
RG-PORT          03/08/1998 13:00      0.00      
RG-PORT          03/08/1998 14:00      0.00      
RG-PORT          03/08/1998 15:00      0.00      
RG-PORT          03/08/1998 16:00      0.00      
RG-PORT          03/08/1998 17:00      0.00      
RG-PORT          03/08/1998 18:00      0.00      
RG-PORT          03/08/1998 19:00      0.00      
RG-PORT          03/08/1998 20:00      0.00      
RG-PORT          03/08/1998 21:00      0.00      
RG-PORT          03/08/1998 22:00      0.00      
RG-PORT          03/08/1998 23:00      0.00      
RG-PORT          03/09/1998 0:00       0.00      
RG-PORT          03/09/1998 1:00       0.00      
RG-PORT          03/09/1998 2:00       0.00      
RG-PORT          03/09/1998 3:00       0.00      
RG-PORT          03/09/1998 4:00       0.00      