[TITLE]
;;Project Title/Notes
 SW 1 0 9A1 'BROWARD COUNTY Multi FAMILY SITE - Runoff example # 47'A2 'RUNO

[OPTIONS]
;;Option             Value
FLOW_UNITS           CFS
INFILTRATION         GREEN_AMPT
FLOW_ROUTING         DYNWAVE
LINK_OFFSETS         DEPTH
MIN_SLOPE            0
ALLOW_PONDING        NO
SKIP_STEADY_STATE    NO

START_DATE           07/15/1977
START_TIME           06:30:00
REPORT_START_DATE    07/15/1977
REPORT_START_TIME    06:30:00
END_DATE             07/15/1977
END_TIME             10:15:00
SWEEP_START          01/01
SWEEP_END            12/31
DRY_DAYS             7
REPORT_STEP          00:05:00
WET_STEP             00:05:00
DRY_STEP             00:05:00
ROUTING_STEP         0:00:30 

INERTIAL_DAMPING     NONE
NORMAL_FLOW_LIMITED  BOTH
FORCE_MAIN_EQUATION  H-W
VARIABLE_STEP        0.75
LENGTHENING_STEP     0
MIN_SURFAREA         12.566
MAX_TRIALS           0
HEAD_TOLERANCE       0
SYS_FLOW_TOL         5
LAT_FLOW_TOL         5
MINIMUM_STEP         0.5
THREADS              1

[FILES]
;;Interfacing Files
SAVE RUNOFF "RUNOFF47.INT"

[EVAPORATION]
;;Data Source    Parameters
;;-------------- ----------------
MONTHLY          0.09   0.11   0.14   0.17   0.18   0.17   0.17   0.16   0.14   0.13   0.11   0.09  
DRY_ONLY         NO

[RAINGAGES]
;;Name           Format    Interval SCF      Source    
;;-------------- --------- ------ ------ ----------
GAGE1            INTENSITY 0.08333  1.0      TIMESERIES RainSeries1     

[SUBCATCHMENTS]
;;Name           Rain Gage        Outlet           Area     %Imperv  Width    %Slope   CurbLen  SnowPack        
;;-------------- ---------------- ---------------- -------- -------- -------- -------- -------- ----------------
CA-1             GAGE1            P001             4.999    39.0     600.0    2.7      0                        
CA-7             GAGE1            P005             1.599    48.6     200.0    2.7      0                        
CA-8             GAGE1            P009             4.565    46.7     500.0    2.7      0                        
CA-11            GAGE1            P011             3.58     47.0     600.0    2.7      0                        

[SUBAREAS]
;;Subcatchment   N-Imperv   N-Perv     S-Imperv   S-Perv     PctZero    RouteTo    PctRouted 
;;-------------- ---------- ---------- ---------- ---------- ---------- ---------- ----------
CA-1             0.015      0.41       0.06       0.2        25         OUTLET    
CA-7             0.015      0.41       0.06       0.2        25         OUTLET    
CA-8             0.015      0.41       0.06       0.2        25         OUTLET    
CA-11            0.015      0.41       0.06       0.2        25         OUTLET    

[INFILTRATION]
;;Subcatchment   Suction    Ksat       IMD       
;;-------------- ---------- ---------- ----------
CA-1             5.0        0.3        0.06      
CA-7             5.0        0.3        0.06      
CA-8             5.0        0.3        0.06      
CA-11            5.0        0.3        0.06      

[JUNCTIONS]
;;Name           Elevation  MaxDepth   InitDepth  SurDepth   Aponded   
;;-------------- ---------- ---------- ---------- ---------- ----------
; Runoff Node
P001             1.10       20.00      0.00       0          0         
; Runoff Node
P009             3.60       20.00      0.00       0          0         
; Runoff Node
P011             2.89       20.00      0.00       0          0         

[OUTFALLS]
;;Name           Elevation  Type       Stage Data       Gated    Route To        
;;-------------- ---------- ---------- ---------------- -------- ----------------
Outlet           0.00       FREE                        NO                       

[STORAGE]
;;Name           Elev.    MaxDepth   InitDepth  Shape      Curve Name/Params            N/A      Fevap    Psi      Ksat     IMD     
;;-------------- -------- ---------- ----------- ---------- ---------------------------- -------- --------          -------- --------
; Runoff Node
P005             1.58     20.00      0.00       FUNCTIONAL 10        0         0        0        0        0        1        0       

[CONDUITS]
;;Name           From Node        To Node          Length     Roughness  InOffset   OutOffset  InitFlow   MaxFlow   
;;-------------- ---------------- ---------------- ---------- ---------- ---------- ---------- ---------- ----------
P001             P001             Outlet           220.0      0.015      0.0        0.0        0          0         
P005             P005             P001             240.0      0.015      0.0        0.0        0          0         
P009             P009             P005             505.0      0.024      0.0        0.0        0          0         
P011             P011             P005             655.0      0.024      0.0        0.0        0          0         

[XSECTIONS]
;;Link           Shape        Geom1            Geom2      Geom3      Geom4      Barrels    Culvert   
;;-------------- ------------ ---------------- ---------- ---------- ---------- ---------- ----------
P001             CIRCULAR     4.0              0          0          0          1                    
P005             CIRCULAR     3.0              0          0          0          1                    
P009             CIRCULAR     2.25             0          0          0          1                    
P011             CIRCULAR     2.5              0          0          0          1                    

[POLLUTANTS]
;;Name           Units  Crain      Cgw        Crdii      Kdecay     SnowOnly   Co-Pollutant     Co-Frac    Cdwf       Cinit     
;;-------------- ------ ---------- ---------- ---------- ---------- ---------- ---------------- ---------- ---------- ----------
COD              MG/L   5          0          0          0          NO         *                0.0        0          0         
TOTSOL           MG/L   5          0          0          0          NO         *                0.0        0          0         
TOTNIT           MG/L   0.3        0          0          0          NO         *                0.0        0          0         
TSS              MG/L   5          0          0          0          NO         *                0.0        0          0         
PO4              MG/L   0.002      0          0          0          NO         *                0.0        0          0         

[LANDUSES]
;;               Sweeping   Fraction   Last      
;;Name           Interval   Available  Swept     
;;-------------- ---------- ---------- ----------
HOUSING          0          0          0         

[COVERAGES]
;;Subcatchment   Land Use         Percent   
;;-------------- ---------------- ----------
CA-1             HOUSING          100       
CA-7             HOUSING          100       
CA-8             HOUSING          100       
CA-11            HOUSING          100       

[LOADINGS]
;;Subcatchment   Pollutant        Buildup   
;;-------------- ---------------- ----------

[BUILDUP]
;;Land Use       Pollutant        Function   Coeff1     Coeff2     Coeff3     Per Unit  
;;-------------- ---------------- ---------- ---------- ---------- ---------- ----------
HOUSING          COD              POWER      100000     1          3          AREA      
HOUSING          TOTSOL           POWER      100000     1          3.5        AREA      
HOUSING          TOTNIT           POWER      100000     1          1.1        AREA      
HOUSING          TSS              POWER      100000     1          3.5        AREA      
HOUSING          PO4              POWER      100        1          1.002      AREA      

[WASHOFF]
;;Land Use       Pollutant        Function   Coeff1     Coeff2     SweepRmvl  BmpRmvl   
;;-------------- ---------------- ---------- ---------- ---------- ---------- ----------
HOUSING          COD              EXP        2          1.4        35         0         
HOUSING          TOTSOL           EXP        20         1.5        40         0         
HOUSING          TOTNIT           EXP        0.5        1.5        45         0         
HOUSING          TSS              EXP        100        1.5        40         0         
HOUSING          PO4              EXP        1          1.6        25         0         

[TREATMENT]
;;Node           Pollutant        Function  
;;-------------- ---------------- ----------
P009             COD              C = 0.05 * COD
P009             TOTSOL           C = 0.05 * TOTSOL
P009             TOTNIT           C = 0.05 * TOTNIT
P009             TSS              C = 0.50 * TSS
P009             PO4              C = 0.05 * PO4
P005             COD              R=0.01*COD*HRT^0.75

[TIMESERIES]
;;Name           Date       Time       Value     
;;-------------- ---------- ---------- ----------
RainSeries1      07/15/1977 06:30      0.00000   
RainSeries1                 06:35      0.84000   
RainSeries1                 06:40      0.04000   
RainSeries1                 06:45      0.02000   
RainSeries1                 06:50      0.00000   
RainSeries1      07/15/1977 06:55      0.00000   
RainSeries1                 07:00      0.00000   
RainSeries1                 07:05      0.00000   
RainSeries1                 07:10      0.68000   
RainSeries1                 07:15      0.88000   
RainSeries1      07/15/1977 07:20      2.02000   
RainSeries1                 07:25      2.13000   
RainSeries1                 07:30      0.63000   
RainSeries1                 07:35      2.33000   
RainSeries1                 07:40      0.31000   
RainSeries1      07/15/1977 07:45      0.20000   
RainSeries1                 07:50      0.00000   
RainSeries1                 07:55      0.00000   
RainSeries1                 08:00      0.00000   
RainSeries1                 08:05      0.02000   
RainSeries1      07/15/1977 08:10      0.00000   
RainSeries1                 08:15      0.00000   
RainSeries1                 08:20      0.00000   
RainSeries1                 08:25      0.00000   
RainSeries1                 08:30      0.22000   
RainSeries1      07/15/1977 08:35      2.39000   
RainSeries1                 08:40      0.40000   
RainSeries1                 08:45      0.86000   
RainSeries1                 08:50      2.79000   
RainSeries1                 08:55      1.38000   
RainSeries1      07/15/1977 09:00      1.08000   
RainSeries1                 09:05      0.64000   
RainSeries1                 09:10      0.02000   
RainSeries1                 09:15      0.15000   
RainSeries1                 09:20      0.00000   

[REPORT]
;;Reporting Options
INPUT      YES
CONTROLS   NO
SUBCATCHMENTS ALL
NODES ALL
LINKS ALL

[TAGS]
Subcatch  CA-1             CA              
Subcatch  CA-7             CA              
Subcatch  CA-8             CA              
Subcatch  CA-11            CA              

[MAP]
DIMENSIONS -111.501 12.393 742.155 663.490
Units      None

[COORDINATES]
;;Node           X-Coord            Y-Coord           
;;-------------- ------------------ ------------------
P001             147.531            119.924           
P009             300.000            300.000           
P011             400.000            400.000           
Outlet           -8.449             111.653           
P005             200.000            200.000           

[VERTICES]
;;Link           X-Coord            Y-Coord           
;;-------------- ------------------ ------------------

[Polygons]
;;Subcatchment   X-Coord            Y-Coord           
;;-------------- ------------------ ------------------
CA-1             177.819            368.074           
CA-1             60.088             485.805           
CA-1             -57.644            368.074           
CA-1             60.088             250.342           
CA-7             549.360            159.719           
CA-7             431.629            277.451           
CA-7             313.897            159.719           
CA-7             431.629            41.988            
CA-8             350.139            516.163           
CA-8             232.408            633.895           
CA-8             114.677            516.163           
CA-8             232.408            398.432           
CA-11            703.353            341.710           
CA-11            585.621            459.442           
CA-11            467.890            341.710           
CA-11            585.621            223.979           

[SYMBOLS]
;;Gage           X-Coord            Y-Coord           
;;-------------- ------------------ ------------------
GAGE1            242.100            568.930           

