[TITLE]
;;Project Title/Notes

[OPTIONS]
;;Option             Value
FLOW_UNITS           CFS
INFILTRATION         GREEN_AMPT
FLOW_ROUTING         DYNWAVE
LINK_OFFSETS         ELEVATION
MIN_SLOPE            0
ALLOW_PONDING        YES
SKIP_STEADY_STATE    NO

START_DATE           01/01/1988
START_TIME           00:00:00
REPORT_START_DATE    01/01/1988
REPORT_START_TIME    00:00:00
END_DATE             01/01/1988
END_TIME             06:00:00
SWEEP_START          01/01
SWEEP_END            12/31
DRY_DAYS             0
REPORT_STEP          00:01:00
WET_STEP             00:15:00
DRY_STEP             01:00:00
ROUTING_STEP         0:00:30 

INERTIAL_DAMPING     NONE
NORMAL_FLOW_LIMITED  BOTH
FORCE_MAIN_EQUATION  D-W
VARIABLE_STEP        0.00
LENGTHENING_STEP     10
MIN_SURFAREA         12.566
MAX_TRIALS           0
HEAD_TOLERANCE       0
SYS_FLOW_TOL         5
LAT_FLOW_TOL         5
MINIMUM_STEP         0.5
THREADS              1

[EVAPORATION]
;;Data Source    Parameters
;;-------------- ----------------
CONSTANT         0.6
DRY_ONLY         NO

[JUNCTIONS]
;;Name           Elevation  MaxDepth   InitDepth  SurDepth   Aponded   
;;-------------- ---------- ---------- ---------- ---------- ----------
10309            101.60     9.40       .00        0          0         
10309a           101.60     9.40       .00        0          0         
10309b           101.60     9.40       .00        0          0         
10309c           101.60     9.40       .00        0          0         
10309d           101.60     9.40       .00        0          0         
10309e           101.60     9.40       .00        0          0         
15009            111.50     13.50      .00        0          0         
15009a           111.50     13.50      .00        0          0         
15009b           111.50     13.50      .00        0          0         
15009c           111.50     13.50      .00        0          0         
15009d           111.50     13.50      .00        0          0         
15009e           121        13.50      .00        0          0         
16009            102.00     18.00      .00        0          0         
16009a           102.00     18.00      .00        0          0         
16009b           102.00     18.00      .00        0          0         
16009c           102.00     18.00      .00        0          0         
16009d           102.00     18.00      .00        0          0         
16009e           102.00     18.00      .00        0          0         
16109            102.80     22.20      .00        0          0         
16109a           102.80     22.20      .00        0          0         
16109b           102.80     22.20      .00        0          0         
16109c           102.80     22.20      .00        0          0         
16109d           102.80     22.20      .00        0          0         
16109e           102.80     22.20      .00        0          0         
;JUNCTION DATA
80408            120        13.40      .00        0          0         
;2nd network or extran example 2
80408a           124.60     13.40      .00        0          0         
;3rd network or extran example 3
80408b           124.60     13.40      .00        0          0         
;4th network or extran example 4
80408c           124.60     13.40      .00        0          0         
;5th network or extran example 5
80408d           124.60     13.40      .00        0          0         
;6th network or extran example 7
80408e           124.60     13.40      .00        0          0         
80608            118.30     16.70      .00        0          0         
80608a           118.30     16.70      .00        0          0         
80608b           118.30     16.70      .00        0          0         
80608c           118.30     16.70      .00        0          0         
80608d           118.30     16.70      .00        0          0         
80608e           118.30     16.70      .00        0          0         
81009            128.20     8.80       .00        0          0         
81009a           128.20     8.80       .00        0          0         
81009b           128.20     8.80       .00        0          0         
81009c           128.20     8.80       .00        0          0         
81009d           128.20     8.80       .00        0          0         
81009e           128.20     8.80       .00        0          0         
81309            117.50     12.50      .00        0          0         
81309a           117.50     12.50      .00        0          0         
81309b           117.50     12.50      .00        0          0         
81309c           117.50     12.50      .00        0          0         
81309d           117.50     12.50      .00        0          0         
81309e           117.50     12.50      .00        0          0         
82308d           112.30     42.70      .00        0          0         
82309            112.30     42.70      .00        0          0         
82309a           112.30     42.70      .00        0          0         
82309b           112.30     42.70      .00        0          0         
82309c           112.30     42.70      .00        0          0         
WetWell          112.30     21         .00        0          0         

[OUTFALLS]
;;Name           Elevation  Type       Stage Data       Gated    Route To        
;;-------------- ---------- ---------- ---------------- -------- ----------------
;*
10208            89.9       FREE                        NO                       
10208b           89.9       FREE                        NO                       
10208c           89.9       FREE                        NO                       
10208d           89.9       FREE                        NO                       
10208e           89.9       FREE                        NO                       
10208a           89.9       FIXED      94.4             YES                      

[STORAGE]
;;Name           Elev.    MaxDepth   InitDepth  Shape      Curve Name/Params            N/A      Fevap    Psi      Ksat     IMD     
;;-------------- -------- ---------- ----------- ---------- ---------------------------- -------- --------          -------- --------
;*   STORAGE JUNCTION AT JUNCTION 82309d for the 5th network
82309d           112.3    42.7       0.0        FUNCTIONAL 800.0     0         0        0        0       

[CONDUITS]
;;Name           From Node        To Node          Length     Roughness  InOffset   OutOffset  InitFlow   MaxFlow   
;;-------------- ---------------- ---------------- ---------- ---------- ---------- ---------- ---------- ----------
1030e            10309e           10208e           4500.0     0.016      *          *          0.0        0         
1030             10309            10208            4500.0     .20        *          *          0.0        0         
1030a            10309a           10208a           4500.0     0.016      *          *          0.0        0         
1030b            10309b           10208b           4500.0     0.016      *          *          0.0        0         
1030c            10309c           10208c           4500.0     0.016      *          *          0.0        0         
1030d            10309d           10208d           4500.0     0.016      *          *          0.0        0         
1570             15009            16009            5000.0     0.0154     *          *          0.0        0         
1570a            15009a           16009a           5000.0     0.0154     *          *          0.0        0         
ControlLink      15009b           16009b           5000.0     0.0154     *          *          0.0        0         
1570c            15009c           16009c           100        0.0154     *          *          0.0        0         
1570d            15009d           16009d           5000.0     0.0154     *          *          0.0        0         
1570e            15009e           16009e           5000.0     0.0154     *          *          0.0        0         
1600             16009            16109            500.0      0.015      *          *          0.0        0         
1600a            16009a           16109a           500.0      0.015      *          *          0.0        0         
1600b            16009b           16109b           500.0      0.015      *          *          0.0        0         
1600c            16009c           16109c           500.0      0.015      *          *          0.0        0         
1600d            16009d           16109d           500.0      0.015      *          *          0.0        0         
1600e            16009e           16109e           500.0      0.015      *          *          0.0        0         
1602             82309            16109            5000.0     0.034      *          *          0.0        0         
1602a            82309a           16109a           5000.0     0.034      *          *          0.0        0         
1602b            82309b           16109b           5000.0     0.034      *          *          0.0        0         
1602c            82309c           16109c           5000.0     0.034      *          *          0.0        0         
1602d            82309d           16109d           5000.0     0.034      *          *          0.0        0         
1602e            WetWell          16109e           5000.0     0.034      *          *          0.0        0         
1630             16009            10309            300.0      0.015      *          *          0.0        0         
1630a            16009a           10309a           300.0      0.015      *          *          0.0        0         
1630b            16009b           10309b           300.0      0.015      *          *          0.0        0         
1630c            16009c           10309c           300.0      0.015      *          *          0.0        0         
1630d            16009d           10309d           300.0      0.015      *          *          0.0        0         
1630e            16009e           10309e           300.0      0.015      *          *          0.0        0         
;CONDUIT DATA - base extran example or example 1
8040             80408            80608            1800.0     0.015      *          *          0.0        0         
;2nd network or extran example 2
8040a            80408a           80608a           1800.0     0.015      *          *          0.0        0         
;3rd network or extran example 3
8040b            80408b           80608b           1800.0     0.015      *          *          0.0        0         
;4th network or extran example 4
8040c            80408c           80608c           1800.0     0.015      *          *          0.0        0         
;5th network or extran example 5
8040d            80408d           80608d           1800.0     0.015      *          *          0.0        0         
;6th network or extran example 7
8040e            80408e           80608e           1800.0     0.015      *          *          0.0        0         
8060             80608            82309            2075.0     0.015      *          114.500    0.0        0         
8060a            80608a           82309a           2075.0     0.015      *          114.500    0.0        0         
8060b            80608b           82309b           2075.0     0.015      *          114.500    0.0        0         
8060c            80608c           82309c           2075.0     0.015      *          114.500    0.0        0         
8060d            80608d           82309d           2075.0     0.015      *          114.500    0.0        0         
8060e            80608e           WetWell          2075.0     0.015      *          114.500    0.0        0         
8100             81009            81309            5100.0     0.015      *          *          0.0        0         
8100a            81009a           81309a           5100.0     0.015      *          *          0.0        0         
8100b            81009b           81309b           5100.0     0.015      *          *          0.0        0         
8100c            81009c           81309c           5100.0     0.015      *          *          0.0        0         
8100d            81009d           81309d           5100.0     0.015      *          *          0.0        0         
8100e            81009e           81309e           5100.0     0.015      *          *          0.0        0         
8130             81309            15009            3500.0     0.015      *          *          0.0        0         
8130a            81309a           15009a           3500.0     0.015      *          *          0.0        0         
8130b            81309b           15009b           3500.0     0.015      *          *          0.0        0         
8130c            81309c           15009c           3500.0     0.015      *          *          0.0        0         
8130d            81309d           15009d           3500.0     0.015      *          *          0.0        0         
8130e            81309e           15009e           3500.0     0.015      *          *          0.0        0         

[PUMPS]
;;Name           From Node        To Node          Pump Curve       Status   Sartup Shutoff 
;;-------------- ---------------- ---------------- ---------------- ------ -------- --------
;* IPTYP NJUNC NJUNC PRATE1  - PRATE3  VRATE1 VRATE2 - for example 7
Pump1            WetWell          15009e           Pump1_Curve      OFF      1        0       
Pump2            WetWell          15009e           Pump1_Curve      ON       2        1       
Pump3            WetWell          15009e           Pump1_Curve      ON       5        2.5     

[ORIFICES]
;;Name           From Node        To Node          Type         Offset     Qcoeff     Gated    CloseTime 
;;-------------- ---------------- ---------------- ------------ ---------- ---------- -------- ----------
;*   SIDE-OUTLET ORIFICE AT JUNCTION 82309d for the 5th network
OR1@82309d-82308d 82309d           82308d           SIDE         *          0.85       NO       0         
;*   SUMP ORIFICE AT JUNCTION 82309b for the 3rd network
ControlOrifice   82309b           15009b           BOTTOM       *          0.85       NO       1         

[WEIRS]
;;Name           From Node        To Node          Type         CrestHt    Qcoeff     Gated    EndCon   EndCoeff   Surcharge  RoadWidth  RoadSurf  
;;-------------- ---------------- ---------------- ------------ ---------- ---------- -------- -------- ---------- ---------- ---------- ----------
;*   TRANVERSE WEIR AT JUNCTION 82309c for the 4th network
WEIR1@82309c-15009c 82309c           15009c           TRANSVERSE   113        3.3        NO       0        0          YES       

[XSECTIONS]
;;Link           Shape        Geom1            Geom2      Geom3      Geom4      Barrels    Culvert   
;;-------------- ------------ ---------------- ---------- ---------- ---------- ---------- ----------
1030e            TRIANGULAR   9.0              54.0       0          0          1.0        0         
1030             TRIANGULAR   9.0              54.0       0          0          1.0        0         
1030a            TRIANGULAR   9.0              54.0       0          0          1.0        0         
1030b            TRIANGULAR   9.0              54.0       0          0          1.0        0         
1030c            TRIANGULAR   9.0              54.0       0          0          1.0        0         
1030d            TRIANGULAR   9.0              54.0       0          0          1.0        0         
1570             CIRCULAR     5.5              0.0        0.0        0.0        1.0        0         
1570a            CIRCULAR     5.5              0.0        0.0        0.0        1.0        0         
ControlLink      CIRCULAR     5.5              0.0        0.0        0.0        1.0        0         
1570c            CIRCULAR     5.5              0.0        0.0        0.0        1.0        0         
1570d            CIRCULAR     5.5              0.0        0.0        0.0        1.0        0         
1570e            CIRCULAR     5.5              0.0        0.0        0.0        1.0        0         
1600             CIRCULAR     6.0              0.0        0.0        0.0        1.0        0         
1600a            CIRCULAR     6.0              0.0        0.0        0.0        1.0        0         
1600b            CIRCULAR     6.0              0.0        0.0        0.0        1.0        0         
1600c            CIRCULAR     6.0              0.0        0.0        0.0        1.0        0         
1600d            CIRCULAR     6.0              0.0        0.0        0.0        1.0        0         
1600e            CIRCULAR     6.0              0.0        0.0        0.0        1.0        0         
1602             CIRCULAR     5.0              0.0        0.0        0.0        1.0        0         
1602a            CIRCULAR     5.0              0.0        0.0        0.0        1.0        0         
1602b            CIRCULAR     5.0              0.0        0.0        0.0        1.0        0         
1602c            CIRCULAR     5.0              0.0        0.0        0.0        1.0        0         
1602d            CIRCULAR     5.0              0.0        0.0        0.0        1.0        0         
1602e            CIRCULAR     5.0              0.0        0.0        0.0        1.0        0         
1630             TRIANGULAR   9.0              54.0       0          0          1.0        0         
1630a            TRIANGULAR   9.0              54.0       0          0          1.0        0         
1630b            TRIANGULAR   9.0              54.0       0          0          1.0        0         
1630c            TRIANGULAR   9.0              54.0       0          0          1.0        0         
1630d            TRIANGULAR   9.0              54.0       0          0          1.0        0         
1630e            TRIANGULAR   9.0              54.0       0          0          1.0        0         
8040             FORCE_MAIN   4.0              .04        0          0          1          1         
8040a            CIRCULAR     4.0              0.0        0.0        0.0        1.0        0         
8040b            CIRCULAR     4.0              0.0        0.0        0.0        1.0        0         
8040c            CIRCULAR     4.0              0.0        0.0        0.0        1.0        0         
8040d            CIRCULAR     4.0              0.0        0.0        0.0        1.0        0         
8040e            CIRCULAR     4.0              0.0        0.0        0.0        1.0        0         
8060             CIRCULAR     4.0              0.0        0.0        0.0        1.0        0         
8060a            CIRCULAR     4.0              0.0        0.0        0.0        1.0        0         
8060b            CIRCULAR     4.0              0.0        0.0        0.0        1.0        0         
8060c            CIRCULAR     4.0              0.0        0.0        0.0        1.0        0         
8060d            CIRCULAR     4.0              0.0        0.0        0.0        1.0        0         
8060e            CIRCULAR     4.0              0.0        0.0        0.0        1.0        0         
8100             CIRCULAR     4.5              0.0        0.0        0.0        1.0        0         
8100a            CIRCULAR     4.5              0.0        0.0        0.0        1.0        0         
8100b            CIRCULAR     4.5              0.0        0.0        0.0        1.0        0         
8100c            CIRCULAR     4.5              0.0        0.0        0.0        1.0        0         
8100d            CIRCULAR     4.5              0.0        0.0        0.0        1.0        0         
8100e            CIRCULAR     4.5              0.0        0.0        0.0        1.0        0         
8130             CIRCULAR     4.5              0.0        0.0        0.0        1.0        0         
8130a            CIRCULAR     4.5              0.0        0.0        0.0        1.0        0         
8130b            CIRCULAR     4.5              0.0        0.0        0.0        1.0        0         
8130c            CIRCULAR     4.5              0.0        0.0        0.0        1.0        0         
8130d            CIRCULAR     4.5              0.0        0.0        0.0        1.0        0         
8130e            CIRCULAR     4.5              0.0        0.0        0.0        1.0        0         
OR1@82309d-82308d CIRCULAR     2                0          0          0
ControlOrifice   CIRCULAR     1                0          0          0
WEIR1@82309c-15009c RECT_OPEN    6                3          0          0         

[LOSSES]
;;Link           Kentry     Kexit      Kavg       Flap Gate  Seepage   
;;-------------- ---------- ---------- ---------- ---------- ----------
8040             0          0          1          NO         0         

[CONTROLS]

;;Control Rules
RULE Pump1
IF Node WetWell Depth <= 3
THEN PUMP PUMP2 STATUS = OFF
AND PUMP PUMP3 STATUS = OFF
Priority 1

RULE Pump2
IF Node WetWell Depth > 3
AND Node WetWell Depth <= 5
THEN PUMP PUMP1 STATUS = OFF
AND PUMP PUMP3 STATUS = OFF
Priority 2

RULE Pump3
IF Node WetWell Depth > 5
THEN PUMP PUMP1 STATUS = OFF
AND PUMP PUMP2 STATUS = OFF
Priority 3

Rule Downstream
If Link ControlLink Flow > 25
Then Orifice ControlOrifice Setting = 0.0
Else Orifice ControlOrifice Setting = 0.5

[INFLOWS]
;;Node           Constituent      Time Series      Type     Mfactor  Sfactor  Baseline Pattern
;;-------------- ---------------- ---------------- -------- -------- -------- -------- --------
80408            FLOW             INFLOW@80408     FLOW     1.0      1.0      1       
80408a           FLOW             INFLOW@80408a    FLOW     1.0      1.0              
80408b           FLOW             INFLOW@80408b    FLOW     1.0      1.0              
80408c           FLOW             INFLOW@80408c    FLOW     1.0      1.0              
80408d           FLOW             INFLOW@80408d    FLOW     1.0      1.0              
80408e           FLOW             INFLOW@80408e    FLOW     1.0      0.25             
81009            FLOW             INFLOW@81009     FLOW     1.0      1.0              
81009a           FLOW             INFLOW@81009a    FLOW     1.0      1.0              
81009b           FLOW             INFLOW@81009b    FLOW     1.0      1.0              
81009c           FLOW             INFLOW@81009c    FLOW     1.0      1.0              
81009d           FLOW             INFLOW@81009d    FLOW     1.0      1.0              
81009e           FLOW             INFLOW@81009e    FLOW     1.0      1.0              
82309            FLOW             INFLOW@82309     FLOW     1.0      1.0              
82309a           FLOW             INFLOW@82309a    FLOW     1.0      1.0              
82309b           FLOW             INFLOW@82309b    FLOW     1.0      1.0              
82309c           FLOW             INFLOW@82309c    FLOW     1.0      1.0              
WetWell          FLOW             INFLOW@82309e    FLOW     1.0      1.0              
82309d           FLOW             INFLOW@82309d    FLOW     1.0      1.0              

[DWF]
;;Node           Constituent      Baseline   Patterns  
;;-------------- ---------------- ---------- ----------
16109            FLOW             0.0       
80408            FLOW             10         "30_Minute"
80408a           FLOW             10         "30_Minute"

[CURVES]
;;Name           Type       X-Value    Y-Value   
;;-------------- ---------- ---------- ----------
Pump2_Curve      Pump3      1          10        
Pump2_Curve                 2          8         
Pump2_Curve                 3          6         
Pump2_Curve                 4          4         
Pump2_Curve                 5          2         
Pump2_Curve                 6          2         
Pump2_Curve                 7          2         
Pump2_Curve                 8          2         
Pump2_Curve                 9          2         
Pump2_Curve                 10         2         
;
Pump1_Curve      Pump3      1          5         
Pump1_Curve                 2          4         
Pump1_Curve                 3          3         
Pump1_Curve                 4          2         
Pump1_Curve                 5          1         
Pump1_Curve                 6          1         
Pump1_Curve                 7          1         
Pump1_Curve                 8          1         
Pump1_Curve                 9          1         
Pump1_Curve                 10         1         
;
Pump3_Curve      Pump3      1          15        
Pump3_Curve                 2          12        
Pump3_Curve                 3          9         
Pump3_Curve                 4          6         
Pump3_Curve                 5          3         
Pump3_Curve                 6          3         
Pump3_Curve                 7          3         
Pump3_Curve                 8          3         
Pump3_Curve                 9          3         
Pump3_Curve                 10         3         
;
EGG              Shape      0.000      0.000     
EGG                         0.040      0.298     
EGG                         0.080      0.433     
EGG                         0.120      0.508     
EGG                         0.160      0.582     
EGG                         0.200      0.642     
EGG                         0.240      0.696     
EGG                         0.280      0.746     
EGG                         0.320      0.791     
EGG                         0.360      0.836     
EGG                         0.400      0.866     
EGG                         0.440      0.896     
EGG                         0.480      0.926     
EGG                         0.520      0.956     
EGG                         0.560      0.970     
EGG                         0.600      0.985     
EGG                         0.640      1.000     
EGG                         0.680      0.985     
EGG                         0.720      0.970     
EGG                         0.760      0.940     
EGG                         0.800      0.896     
EGG                         0.840      0.836     
EGG                         0.880      0.764     
EGG                         0.920      0.642     
EGG                         0.960      0.310     
EGG                         1.000      0.000     
;
SB1              Storage    0          0         
SB1                         1          0         
SB1                         1.5        0         
SB1                         2          0         
SB1                         2.5        340       
SB1                         3          2483      
SB1                         3.5        5686      
SB1                         4          11585     
SB1                         4.5        51299     
SB1                         5          278327    
SB1                         5.5        526214    
SB1                         6          740422    
SB1                         6.5        839055    
SB1                         7          864692    
SB1                         8          866863    
SB1                         9          868103    
SB1                         10         868394    
;
SB2              Storage    0          0         
SB2                         1          0         
SB2                         1.5        7103      
SB2                         2          31791     
SB2                         2.5        71923     
SB2                         3          122585    
SB2                         3.5        183836    
SB2                         4          272757    
SB2                         4.5        460705    
SB2                         5          751151    
SB2                         5.5        967995    
SB2                         6          1095621   
SB2                         6.5        1101547   
SB2                         7          1101970   
SB2                         8          1102600   
SB2                         9          1103111   
SB2                         10         1103519   
;
SB3              Storage    0          0         
SB3                         1          0         
SB3                         1.5        0         
SB3                         2          0         
SB3                         2.5        0         
SB3                         3          332       
SB3                         3.5        23187     
SB3                         4          127395    
SB3                         4.5        316178    
SB3                         5          471158    
SB3                         5.5        554586    
SB3                         6          598930    
SB3                         6.5        615368    
SB3                         7          619054    
SB3                         8          623164    
SB3                         9          626320    
SB3                         10         628073    
;
SB4              Storage    0          1565      
SB4                         1          2261      
SB4                         1.5        2607      
SB4                         2          3010      
SB4                         2.5        3441      
SB4                         3          3901      
SB4                         3.5        4388      
SB4                         4          6141      
SB4                         4.5        73936     
SB4                         5          305776    
SB4                         5.5        477898    
SB4                         6          581768    
SB4                         6.5        602558    
SB4                         7          605744    
SB4                         8          606120    
SB4                         9          606441    
SB4                         10         606768    
;
SB5              Storage    0          0         
SB5                         1          0         
SB5                         1.5        0         