[TITLE]
;;Project Title/Notes
Scenario Run :  1DONLY

[OPTIONS]
;;Option             Value
FLOW_UNITS           CFS
INFILTRATION         GREEN_AMPT
FLOW_ROUTING         DYNWAVE
LINK_OFFSETS         DEPTH
MIN_SLOPE            0
ALLOW_PONDING        NO
SKIP_STEADY_STATE    NO

IGNORE_SNOWMELT      YES
IGNORE_GROUNDWATER   YES
IGNORE_QUALITY       YES
START_DATE           01/01/1997
START_TIME           00:00:00
REPORT_START_DATE    01/01/1997
REPORT_START_TIME    00:00:00
END_DATE             01/01/1997
END_TIME             02:00:00
SWEEP_START          01/01
SWEEP_END            12/31
DRY_DAYS             5.000000
REPORT_STEP          00:05:00
WET_STEP             00:00:30
DRY_STEP             00:01:00
ROUTING_STEP         0:00:30 

INERTIAL_DAMPING     NONE
NORMAL_FLOW_LIMITED  BOTH
FORCE_MAIN_EQUATION  H-W
VARIABLE_STEP        0.95
LENGTHENING_STEP     10
MIN_SURFAREA         0
MAX_TRIALS           6
HEAD_TOLERANCE       0.000100
SYS_FLOW_TOL         5
LAT_FLOW_TOL         5
MINIMUM_STEP         1.000000
THREADS              1

[EVAPORATION]
;;Data Source    Parameters
;;-------------- ----------------
CONSTANT         0.100000
DRY_ONLY         NO

[RAINGAGES]
;;Name           Format    Interval SCF      Source    
;;-------------- --------- ------ ------ ----------
;  July rainfall event
RAINGAGE-13      VOLUME    0.016667 1.000000 TIMESERIES 100-YEAR        

[SUBCATCHMENTS]
;;Name           Rain Gage        Outlet           Area     %Imperv  Width    %Slope   CurbLen  SnowPack        
;;-------------- ---------------- ---------------- -------- -------- -------- -------- -------- ----------------
;  C10
C10              RAINGAGE-13      117              9.657878 90.000000 1066.435908 1.400000 0.000000 BORLÄNGE        
;  C13
C13              RAINGAGE-13      JCT-10           1.803174 89.000000 460.800277 0.800000 0.000000 BORLÄNGE        
;  C15
C15              RAINGAGE-13      232              9.876764 62.000000 1078.453020 2.200000 0.000000 BORLÄNGE        
;  C20
C20              RAINGAGE-13      281              7.607752 44.000000 946.503193 2.700000 0.000000 BORLÄNGE        
;  C25
C25              RAINGAGE-13      1114             14.867473 34.000000 1323.160338 2.300000 0.000000 BORLÄNGE        
;  C30
C30              RAINGAGE-13      384              6.717236 26.000000 889.383799 3.300000 0.000000 BORLÄNGE        
;  C33
C33              RAINGAGE-13      1115             7.127885 35.000000 916.166175 2.200000 0.000000 BORLÄNGE        
;  C35
C35              RAINGAGE-13      421              13.463804 40.000000 1259.150941 1.100000 0.000000 BORLÄNGE        
;  C45
C45              RAINGAGE-13      1001             10.690976 35.000000 1122.025084 1.100000 0.000000 BORLÄNGE        
;  C50
C50              RAINGAGE-13      387              19.088115 46.000000 1499.254709 1.500000 0.000000 BORLÄNGE        
;  C55
C55              RAINGAGE-13      183              6.454598 48.000000 871.823366 3.000000 0.000000 BORLÄNGE        
;  C57
C57              RAINGAGE-13      267              12.810948 48.000000 1228.243644 3.000000 0.000000 BORLÄNGE        
;  C60
C60              RAINGAGE-13      323              15.307516 54.000000 1342.598830 1.600000 0.000000 BORLÄNGE        
;  C65
C65              RAINGAGE-13      257              6.246600 61.000000 857.661142 4.200000 0.000000 BORLÄNGE        
;  D10
D10              RAINGAGE-13      136              9.788079 79.000000 1073.600306 1.200000 0.000000 BORLÄNGE        
;  D15
D15              RAINGAGE-13      31               5.991881 56.000000 839.992650 1.400000 0.000000 BORLÄNGE        
;  D20
D20              RAINGAGE-13      19               6.903650 54.000000 901.640236 3.300000 0.000000 BORLÄNGE        
;  D21
D21              RAINGAGE-13      7                14.957666 21.000000 1327.167753 3.300000 0.000000 BORLÄNGE        
;  D22
D22              RAINGAGE-13      17               13.951151 25.000000 1281.736974 1.300000 0.000000 BORLÄNGE        
;  D25
D25              RAINGAGE-13      JCT-184          5.690174 24.000000 818.571580 1.000000 0.000000 BORLÄNGE        
;  D30
D30              RAINGAGE-13      201              14.354926 23.000000 1300.152766 0.200000 0.000000 BORLÄNGE        
;  D32
D32              RAINGAGE-13      956              3.313461 52.000000 624.647253 0.400000 0.000000 BORLÄNGE        
;  D35
D35              RAINGAGE-13      348              8.142201 24.000000 979.185154 1.100000 0.000000 BORLÄNGE        
;  D40
D40              RAINGAGE-13      269              10.204143 27.000000 1096.180734 1.500000 0.000000 BORLÄNGE        
;  D45
D45              RAINGAGE-13      95               15.999290 34.000000 1372.600827 1.500000 0.000000 BORLÄNGE        
;  D50
D50              RAINGAGE-13      187              8.393006 39.000000 994.151685 1.800000 0.000000 BORLÄNGE        
;  D55
D55              RAINGAGE-13      46               7.017997 26.000000 909.076600 0.300000 0.000000 BORLÄNGE        
;  D60
D60              RAINGAGE-13      200              12.647283 25.000000 1220.372776 1.200000 0.000000 BORLÄNGE        
;  D65
D65              RAINGAGE-13      209              8.644601 24.000000 1008.942412 2.500000 0.000000 BORLÄNGE        
;  D70
D70              RAINGAGE-13      105              7.284719 44.000000 926.190423 1.600000 0.000000 BORLÄNGE        

[SUBAREAS]
;;Subcatchment   N-Imperv   N-Perv     S-Imperv   S-Perv     PctZero    RouteTo    PctRouted 
;;-------------- ---------- ---------- ---------- ---------- ---------- ---------- ----------
C10              0.020000   0.300000   0.100000   0.250000   25.000000  OUTLET    
C13              0.020000   0.300000   0.100000   0.250000   25.000000  OUTLET    
C15              0.020000   0.270000   0.100000   0.230000   25.000000  OUTLET    
C20              0.020000   0.230000   0.100000   0.210000   25.000000  OUTLET    
C25              0.020000   0.270000   0.100000   0.230000   25.000000  OUTLET    
C30              0.020000   0.290000   0.100000   0.250000   25.000000  OUTLET    
C33              0.020000   0.150000   0.100000   0.170000   25.000000  OUTLET    
C35              0.020000   0.240000   0.100000   0.220000   25.000000  OUTLET    
C45              0.020000   0.260000   0.100000   0.230000   25.000000  OUTLET    
C50              0.020000   0.260000   0.100000   0.230000   25.000000  OUTLET    
C55              0.020000   0.280000   0.100000   0.240000   25.000000  OUTLET    
C57              0.020000   0.280000   0.100000   0.240000   25.000000  OUTLET    
C60              0.020000   0.230000   0.100000   0.210000   25.000000  OUTLET    
C65              0.020000   0.270000   0.100000   0.230000   25.000000  OUTLET    
D10              0.020000   0.260000   0.100000   0.230000   25.000000  OUTLET    
D15              0.020000   0.290000   0.100000   0.250000   25.000000  OUTLET    
D20              0.020000   0.270000   0.100000   0.230000   25.000000  OUTLET    
D21              0.020000   0.260000   0.100000   0.230000   25.000000  OUTLET    
D22              0.020000   0.250000   0.100000   0.230000   25.000000  OUTLET    
D25              0.020000   0.250000   0.100000   0.220000   25.000000  OUTLET    
D30              0.020000   0.280000   0.100000   0.240000   25.000000  OUTLET    
D32              0.020000   0.280000   0.100000   0.240000   25.000000  OUTLET    
D35              0.020000   0.270000   0.100000   0.240000   25.000000  OUTLET    
D40              0.020000   0.250000   0.100000   0.220000   25.000000  OUTLET    
D45              0.020000   0.240000   0.100000   0.220000   25.000000  OUTLET    
D50              0.020000   0.240000   0.100000   0.220000   25.000000  OUTLET    
D55              0.020000   0.240000   0.100000   0.220000   25.000000  OUTLET    
D60              0.020000   0.250000   0.100000   0.220000   25.000000  OUTLET    
D65              0.020000   0.240000   0.100000   0.220000   25.000000  OUTLET    
D70              0.020000   0.250000   0.100000   0.230000   25.000000  OUTLET    

[INFILTRATION]
;;Subcatchment   Suction    Ksat       IMD       
;;-------------- ---------- ---------- ----------
C10              5.000000   1.000000   0.250000  
C13              5.000000   1.000000   0.250000  
C15              5.000000   1.000000   0.250000  
C20              5.000000   1.000000   0.250000  
C25              5.000000   1.000000   0.250000  
C30              5.000000   1.000000   0.250000  
C33              5.000000   1.000000   0.250000  
C35              5.000000   1.000000   0.250000  
C45              5.000000   1.000000   0.250000  
C50              5.000000   1.000000   0.250000  
C55              5.000000   1.000000   0.250000  
C57              5.000000   1.000000   0.250000  
C60              5.000000   1.000000   0.250000  
C65              5.000000   1.000000   0.250000  
D10              5.000000   1.000000   0.250000  
D15              5.000000   1.000000   0.250000  
D20              5.000000   1.000000   0.250000  
D21              5.000000   1.000000   0.250000  
D22              5.000000   1.000000   0.250000  
D25              5.000000   1.000000   0.250000  
D30              5.000000   1.000000   0.250000  
D32              5.000000   1.000000   0.250000  
D35              5.000000   1.000000   0.250000  
D40              5.000000   1.000000   0.250000  
D45              5.000000   1.000000   0.250000  
D50              5.000000   1.000000   0.250000  
D55              5.000000   1.000000   0.250000  
D60              5.000000   1.000000   0.250000  
D65              5.000000   1.000000   0.250000  
D70              5.000000   1.000000   0.250000  

[LID_CONTROLS]
;;Name           Type/Layer Parameters
;;-------------- ---------- ----------
TRENCH           IT
TRENCH           SURFACE    3.937008   0.100000   0.013000   1.000000   0.000000  
TRENCH           STORAGE    39.370079  0.330000   30.000000  0.000000  
TRENCH           DRAIN      1.000000   1.000000   1.000000   1.000000  

BIOCELL          BC
BIOCELL          SURFACE    3.937008   0.100000   0.013000   1.000000   0.000000  
BIOCELL          SOIL       39.370079  0.330000   0.250000   0.150000   20.000000  1.000000   5.000000  
BIOCELL          STORAGE    39.370079  0.330000   30.000000  0.000000  
BIOCELL          DRAIN      1.000000   1.000000   6.000000   1.000000  

RAINB            RB
RAINB            STORAGE    48.000000  0.250000   30.000000  0.000000  
RAINB            DRAIN      1.000000   1.000000   6.000000   1.000000  

VEGSWALE         VS
VEGSWALE         SURFACE    3.937008   0.330000   0.013000   1.000000   1.000000  

GREENROOF        GR
GREENROOF        SURFACE    39.370079  0.100000   0.013000   1.000000   0.000000  
GREENROOF        SOIL       19.685039  0.400000   0.300000   0.120000   30.000000  5.000000   5.000000  
GREENROOF        DRAINMAT   5.000000   0.500000   0.020000  

PAVEMENT         PP
PAVEMENT         SURFACE    8.000000   0.330000   0.013000   1.000000   1.000000  
PAVEMENT         PAVEMENT   0.393701   0.150000   0.150000   80.000000  0.000000  
PAVEMENT         STORAGE    39.370079  0.330000   70.000000  0.000000  
PAVEMENT         DRAIN      0.000000   1.000000   0.001550   1.000000  

[LID_USAGE]
;;Subcatchment   LID Process      Number  Area       Width      InitSat    FromImp    ToPerv     RptFile                  DrainTo         
;;-------------- ---------------- ------- ---------- ---------- ---------- ---------- ---------- ------------------------ ----------------

[AQUIFERS]
;;Name           Por    WP     FC     Ksat   Kslope Tslope ETu    ETs    Seep   Ebot   Egw    Umc    ETupat 
;;-------------- ------ ------ ------ ------ ------ ------ ------ ------ ------ ------ ------ ------ ------
AQUIFER-1        0.400000 0.150000 0.300000 5.000000 5.000000 5.000000 0.500000 10.000000 0.020000 0.000000 2.000000 0.250000 SEASONAL

[GROUNDWATER]
;;Subcatchment   Aquifer          Node             Esurf  A1     B1     A2     B2     A3     Dsw    Egwt   Ebot   Wgr    Umc   
;;-------------- ---------------- ---------------- ------ ------ ------ ------ ------ ------ ------ ------ ------ ------ ------
C10              AQUIFER-1        117              10.000000 0.001000 1.000000 0.000000 1.000000 0.000000 0.000000 1.000000 0.000000 2.000000 0.250000
C13              AQUIFER-1        JCT-10           10.000000 0.001000 1.000000 0.000000 1.000000 0.000000 0.000000 1.000000 0.000000 2.000000 0.250000
C15              AQUIFER-1        232              10.000000 0.001000 1.000000 0.000000 1.000000 0.000000 0.000000 1.000000 0.000000 2.000000 0.250000
C20              AQUIFER-1        281              10.000000 0.001000 1.000000 0.000000 1.000000 0.000000 0.000000 1.000000 0.000000 2.000000 0.250000
C25              AQUIFER-1        1114             10.000000 0.001000 1.000000 0.000000 1.000000 0.000000 0.000000 1.000000 0.000000 2.000000 0.250000
C30              AQUIFER-1        384              10.000000 0.001000 1.000000 0.000000 1.000000 0.000000 0.000000 1.000000 0.000000 2.000000 0.250000
C33              AQUIFER-1        1115             10.000000 0.001000 1.000000 0.000000 1.000000 0.000000 0.000000 1.000000 0.000000 2.000000 0.250000
C35              AQUIFER-1        421              10.000000 0.001000 1.000000 0.000000 1.000000 0.000000 0.000000 1.000000 0.000000 2.000000 0.250000
C45              AQUIFER-1        1001             10.000000 0.001000 1.000000 0.000000 1.000000 0.000000 0.000000 1.000000 0.000000 2.000000 0.250000
C50              AQUIFER-1        387              10.000000 0.001000 1.000000 0.000000 1.000000 0.000000 0.000000 1.000000 0.000000 2.000000 0.250000
C55              AQUIFER-1        183              10.000000 0.001000 1.000000 0.000000 1.000000 0.000000 0.000000 1.000000 0.000000 2.000000 0.250000
C57              AQUIFER-1        267              10.000000 0.001000 1.000000 0.000000 1.000000 0.000000 0.000000 1.000000 0.000000 2.000000 0.250000
C60              AQUIFER-1        323              10.000000 0.001000 1.000000 0.000000 1.000000 0.000000 0.000000 1.000000 0.000000 2.000000 0.250000
C65              AQUIFER-1        257              10.000000 0.001000 1.000000 0.000000 1.000000 0.000000 0.000000 1.000000 0.000000 2.000000 0.250000
D10              AQUIFER-1        136              10.000000 0.001000 1.000000 0.000000 1.000000 0.000000 0.000000 1.000000 0.000000 2.000000 0.250000
D15              AQUIFER-1        31               10.000000 0.001000 1.000000 0.000000 1.000000 0.000000 0.000000 1.000000 0.000000 2.000000 0.250000
D20              AQUIFER-1        19               10.000000 0.001000 1.000000 0.000000 1.000000 0.000000 0.000000 1.000000 0.000000 2.000000 0.250000
D21              AQUIFER-1        7                10.000000 0.001000 1.000000 0.000000 1.000000 0.000000 0.000000 1.000000 0.000000 2.000000 0.250000
D22              AQUIFER-1        17               10.000000 0.001000 1.000000 0.000000 1.000000 0.000000 0.000000 1.000000 0.000000 2.000000 0.250000
D25              AQUIFER-1        32               10.000000 0.001000 1.000000 0.000000 1.000000 0.000000 0.000000 1.000000 0.000000 2.000000 0.250000
D30              AQUIFER-1        201              10.000000 0.001000 1.000000 0.000000 1.000000 0.000000 0.000000 1.000000 0.000000 2.000000 0.250000
D32              AQUIFER-1        956              10.000000 0.001000 1.000000 0.000000 1.000000 0.000000 0.000000 1.000000 0.000000 2.000000 0.250000
D35              AQUIFER-1        348              10.000000 0.001000 1.000000 0.000000 1.000000 0.000000 0.000000 1.000000 0.000000 2.000000 0.250000
D40              AQUIFER-1        269              10.000000 0.001000 1.000000 0.000000 1.000000 0.000000 0.000000 1.000000 0.000000 2.000000 0.250000
D45              AQUIFER-1        95               10.000000 0.001000 1.000000 0.000000 1.000000 0.000000 0.000000 1.000000 0.000000 2.000000 0.250000
D50              AQUIFER-1        187              10.000000 0.001000 1.000000 0.000000 1.000000 0.000000 0.000000 1.000000 0.000000 2.000000 0.250000
D55              AQUIFER-1        46               10.000000 0.001000 1.000000 0.000000 1.000000 0.000000 0.000000 1.000000 0.000000 2.000000 0.250000
D60              AQUIFER-1        200              10.000000 0.001000 1.000000 0.000000 1.000000 0.000000 0.000000 1.000000 0.000000 2.000000 0.250000
D65              AQUIFER-1        209              10.000000 0.001000 1.000000 0.000000 1.000000 0.000000 0.000000 1.000000 0.000000 2.000000 0.250000
D70              AQUIFER-1        105              10.000000 0.001000 1.000000 0.000000 1.000000 0.000000 0.000000 1.000000 0.000000 2.000000 0.250000

[SNOWPACKS]
;;Name           Surface    Parameters
;;-------------- ---------- ----------
BORLÄNGE         PLOWABLE   0.000000   0.000000   0.000000   0.000000   0.000000   0.000000   0.000000  
BORLÄNGE         IMPERVIOUS 0.020000   0.030000   0.000000   0.100000   0.000000   0.000000   5.000000  
BORLÄNGE         PERVIOUS   0.020000   0.030000   0.000000   0.100000   0.000000   0.000000   5.000000  
BORLÄNGE         REMOVAL    5.000000   0.000000   0.000000   0.000000   1.000000   0.000000   

[JUNCTIONS]
;;Name           Elevation  MaxDepth   InitDepth  SurDepth   Aponded   
;;-------------- ---------- ---------- ---------- ---------- ----------
1001             708.946023 4.399584   0.000000   100.000000 0.000000  
105              678.785022 4.769501   0.000000   0.000000   0.000000  
13               689.376022 5.514259   0.000000   0.000000   0.000000  
136              665.130021 11.169918  0.000000   0.000000   0.000000  
137              690.487022 9.689719   0.000000   0.000000   0.000000  
140              666.277021 8.076071   0.000000   0.000000   0.000000  
144              666.356021 8.249979   0.000000   0.000000   0.000000  
147              686.537022 9.135874   0.000000   0.000000   0.000000  
15               687.867022 5.400162   0.000000   0.000000   0.000000  
150              681.791022 7.344574   0.000000   0.000000   0.000000  
158              670.066021 7.000112   0.000000   0.000000   0.000000  
166              670.074021 8.429832   0.000000   0.000000   0.000000  
173              670.024021 8.978697   0.000000   0.000000   0.000000  
179              668.796021 5.009548   0.000000   0.000000   0.000000  
18               694.541022 5.712314   0.000000   0.000000   0.000000  
183              670.951021 10.048979  0.000000   0.000000   0.000000  
19               671.874022 10.430311  0.000000   0.000000   0.000000  
200              689.114022 6.000137   0.000000   0.000000   0.000000  
201              693.878022 8.773969   0.000000   0.000000   0.000000  
205              664.771021 13.169840  0.000000   0.000000   0.000000  
209              671.053021 12.199730  0.000000   0.000000   0.000000  
232              671.409021 6.482227   0.000000   0.000000   0.000000  
244              678.534022 5.079524   0.000000   0.000000   0.000000  
25               673.849022 2.888408   0.000000   0.000000   0.000000  
255              668.954021 4.209979   0.000000   0.000000   0.000000  
257              670.530021 15.520276  0.000000   0.000000   0.000000  
26               665.488021 2.999900   0.000000   0.000000   0.000000  
260              672.441022 4.999673   0.000000   0.000000   0.000000  
261              672.623022 4.999546   0.000000   0.000000   0.000000  
267              696.753022 4.107361   0.000000   0.000000   0.000000  
269              667.148021 13.730458  0.000000   0.000000   0.000000  
276              680.457022 2.000602   0.000000   0.000000   0.000000  
281              672.474022 6.551774   0.000000   0.000000   0.000000  
285              681.459022 4.235688   0.000000   0.000000   0.000000  
297              674.041022 8.015457   0.000000   0.000000   0.000000  
304              674.815022 7.331168   0.000000   0.000000   0.000000  
306              679.947022 5.950638   0.000000   0.000000   0.000000  
31               671.658021 2.690215   0.000000   0.000000   0.000000  
32               697.855022 5.150351   0.000000   0.000000   0.000000  
323              678.639022 16.649701  0.000000   0.000000   0.000000  
325              677.120022 6.254131   0.000000   0.000000   0.000000  
33               693.901022 5.000349   0.000000   0.000000   0.000000  
333              676.837022 8.223906   0.000000   0.000000   0.000000  
348              682.669022 4.989957   0.000000   0.000000   0.000000  
351              675.630022 11.879521  0.000000   0.000000   0.000000  
371              697.059022 6.944832   0.000000   0.000000   0.000000  
384              681.107022 10.194090  0.000000   0.000000   0.000000  
387              693.949022 13.849806  0.000000   0.000000   0.000000  
393              688.332022 5.079988   0.000000   0.000000   0.000000  
4                691.299022 6.869898   0.000000   0.000000   0.000000  
407              708.361023 5.080053   0.000000   0.000000   0.000000  
46               687.267022 15.053309  0.000000   0.000000   0.000000  
56               685.231022 7.279932   0.000000   0.000000   0.000000  
64               688.452022 13.819749  0.000000   0.000000   0.000000  
7                674.506022 6.579561   0.000000   0.000000   0.000000  
74               665.975021 3.000299   0.000000   0.000000   0.000000  
76               688.812022 13.459749  0.000000   0.000000   0.000000  
77               667.452021 3.019791   0.000000   0.000000   0.000000  
879              697.404022 5.083864   0.000000   0.000000   0.000000  
882              692.479022 8.260462   0.000000   0.000000   0.000000  
893              702.683022 4.999661   0.000000   0.000000   0.000000  
894              705.270023 2.990023   0.000000   0.000000   0.000000  
95               694.176022 3.100447   0.000000   0.000000   0.000000  
956              694.370022 6.600046   0.000000   0.000000   0.000000  
974              675.710022 6.902543   0.000000   0.000000   0.000000  
982              675.842022 7.499841   0.000000   0.000000   0.000000  
;  New Junction
JCT-10           670.024021 9.468851   0.000000   0.000000   0.000000  
JCT-100          716.746023 3.999948   0.000000   0.000000   0.000000  
JCT-102          715.995023 2.984272   0.000000   0.000000   0.000000  
JCT-104          714.937023 5.828873   0.000000   0.000000   0.000000  
JCT-106          713.470023 7.006618   0.000000   0.000000   0.000000  
JCT-108          712.892023 3.942482   0.000000   0.000000   0.000000  
JCT-110          710.767023 3.823568   0.000000   0.000000   0.000000  
JCT-112          719.493023 4.081629   0.000000   0.000000   0.000000  
JCT-114          719.650023 3.999672   0.000000   0.000000   0.000000  
JCT-116          718.813023 4.000045   0.000000   0.000000   0.000000  
JCT-118          714.839023 3.989235   0.000000   0.000000   0.000000  
JCT-12           669.183021 13.419579  0.000000   0.000000   0.000000  
JCT-120          713.400023 6.171552   0.000000   0.000000   0.000000  
JCT-122          712.300023 6.679774   0.000000   0.000000   0.000000  
JCT-124          708.446023 4.039227   0.000000   0.000000   0.000000  
JCT-126          703.291023 4.043081   0.000000   0.000000   0.000000  
JCT-128          699.623022 3.348660   0.000000   0.000000   0.000000  
JCT-130          715.649023 4.000396   0.000000   0.000000   0.000000  
JCT-132          715.442023 4.000444   0.000000   0.000000   0.000000  
JCT-134          712.006023 4.000312   0.000000   0.000000   0.000000  
JCT-136          707.556023 4.004236   0.000000   0.000000   0.000000  
JCT-138          680.000022 31.625017  0.000000   0.000000   0.000000  
JCT-14           668.342021 28.706669  0.000000   0.000000   0.000000  
JCT-140          682.000022 30.486930  0.000000   0.000000   0.000000  
JCT-142          685.000022 24.955011  0.000000   164.042000 0.000000  
JCT-144          685.500022 17.229262  0.000000   0.000000   0.000000  
JCT-146          686.000022 22.413163  0.000000   0.000000   0.000000  
JCT-148          667.700021 41.483410  0.000000   0.000000   0.000000  
JCT-150          670.000021 46.248210  0.000000   0.000000   0.000000  
JCT-152          675.000022 34.637570  0.000000   0.000000   0.000000  
JCT-154          689.000022 6.991165   0.000000   0.000000   0.000000  
JCT-156          680.475022 4.000236   0.000000   164.042000 0.000000  
JCT-16           696.880022 3.945518   0.000000   0.000000   0.000000  
JCT-160          671.026000 3.000000   0.000000   0.000000   0.000000  
JCT-162          670.162021 2.999979   0.000000   0.000000   0.000000  
JCT-164          667.588021 2.999979   0.000000   0.000000   0.000000  
JCT-166          666.943021 2.999979   0.000000   0.000000   0.000000  
JCT-168          664.867021 2.999979   0.000000   0.000000   0.000000  
JCT-170          663.964021 2.999979   0.000000   0.000000   0.000000  
; New Junction
JCT-174          693.267000 1.500000   0.000000   0.000000   0.000000  
; New Junction
JCT-176          694.890000 1.500000   0.000000   0.000000   0.000000  
; New Junction
JCT-178          698.169000 1.500000   0.000000   0.000000   0.000000  
JCT-18           689.975022 3.999935   0.000000   0.000000   0.000000  
; New Junction
JCT-180          700.253000 1.500000   0.000000   0.000000   0.000000  
; New Junction
JCT-182          702.488000 1.500000   0.000000   0.000000   0.000000  
; New Junction
JCT-184          703.005000 1.500000   0.000000   0.000000   0.000000  
JCT-20           682.574022 4.000170   0.000000   0.000000   0.000000  
JCT-22           669.113021 14.318752  0.000000   0.000000   0.000000  
JCT-24           704.832023 4.000477   0.000000   0.000000   0.000000  
JCT-26           699.613022 3.893168   0.000000   0.000000   0.000000  
JCT-28           685.146022 3.999637   0.000000   0.000000   0.000000  
JCT-30           671.613021 10.260232  0.000000   0.000000   0.000000  
JCT-32           710.184023 4.719304   0.000000   0.000000   0.000000  
JCT-34           703.120023 4.012083   0.000000   0.000000   0.000000  
JCT-36           687.394022 4.158851   0.000000   0.000000   0.000000  
JCT-38           673.113022 6.168641   0.000000   0.000000   0.000000  
JCT-40           703.446023 4.000421   0.000000   0.000000   0.000000  
JCT-42           699.390022 4.000427   0.000000   0.000000   0.000000  
JCT-44           697.161022 9.999670   0.000000   0.000000   0.000000  
JCT-46           681.314022 4.023097   0.000000   0.000000   0.000000  
JCT-48           674.613022 3.999966   0.000000   0.000000   0.000000  
JCT-50           724.281023 4.169935   0.000000   0.000000   0.000000  
JCT-52           721.000023 13.390000  0.000000   0.000000   0.000000  
JCT-54           717.669023 3.569304   0.000000   0.000000   0.000000  
JCT-56           688.054022 3.999767   0.000000   0.000000   0.000000  
JCT-58           686.054022 5.999767   0.000000   0.000000   0.000000  
JCT-60           684.211022 8.079410   0.000000   0.000000   0.000000  
JCT-62           725.409023 4.000314   0.000000   0.000000   0.000000  
JCT-64           711.328023 3.694749   0.000000   0.000000   0.000000  
JCT-66           697.568022 3.999831   0.000000   0.000000   0.000000  
JCT-68           692.002022 4.037577   0.000000   0.000000   0.000000  
JCT-70           717.841023 4.000198   0.000000   0.000000   0.000000  
JCT-72           710.396023 3.999879   0.000000   0.000000   0.000000  
JCT-74           699.813022 4.050160   0.000000   0.000000   0.000000  
JCT-76           697.165022 3.995282   0.000000   0.000000   0.000000  
JCT-78           712.187023 4.144611   0.000000   0.000000   0.000000  
JCT-80           710.358023 3.924638   0.000000   0.000000   0.000000  
JCT-82           715.107023 3.999831   0.000000   0.000000   0.000000  
JCT-84           714.034023 3.684018   0.000000   0.000000   0.000000  
JCT-86           725.622023 4.307255   0.000000   0.000000   0.000000  
JCT-88           722.005023 4.259544   0.000000   0.000000   0.000000  
JCT-90           718.885023 4.081230   0.000000   0.000000   0.000000  
JCT-92           715.360023 3.999790   0.000000   0.000000   0.000000  
JCT-94           711.000023 8.968340   0.000000   0.000000   0.000000  
JCT-96           702.000022 14.758990  0.000000   0.000000   0.000000  
JCT-98           720.798023 4.112778   0.000000   0.000000   0.000000  

[OUTFALLS]
;;Name           Elevation  Type       Stage Data       Gated    Route To        
;;-------------- ---------- ---------- ---------------- -------- ----------------
;  New Outfall
OFALL-10         680.000022 FREE                        NO                       
OFALL-12         660.000000 FREE                        NO                       
VIADUCT1         696.000022 FREE                        NO                       
VIADUCT2         692.000022 FREE                        NO                       

[STORAGE]
;;Name           Elev.    MaxDepth   InitDepth  Shape      Curve Name/Params            N/A      Fevap    Psi      Ksat     IMD     
;;-------------- -------- ---------- ----------- ---------- ---------------------------- -------- --------          -------- --------
1114             683.640022 2.442000   0.000000   TABULAR    1114                         0.000000 1.000000
1115             682.500022 10.336000  0.000000   TABULAR    1115                         0.000000 1.000000
117              666.800021 65.616800  0.000000   TABULAR    117                          0.000000 1.000000
163              668.130021 65.616800  0.000000   TABULAR    163                          0.000000 1.000000
17               682.940022 9.783000   0.000000   TABULAR    17                           0.000000 1.000000
187              671.580021 5.800525   0.000000   TABULAR    187                          0.000000 1.000000
229              674.010022 65.616800  0.000000   TABULAR    229                          0.000000 1.000000