[TITLE]
;;Project Title/Notes
Lavaca_Sample

[OPTIONS]
;;Option             Value
FLOW_UNITS           CMS
INFILTRATION         HORTON
FLOW_ROUTING         KINWAVE
LINK_OFFSETS         DEPTH
MIN_SLOPE            0
ALLOW_PONDING        NO
SKIP_STEADY_STATE    YES

START_DATE           01/01/2000
START_TIME           00:00:00
REPORT_START_DATE    01/01/2000
REPORT_START_TIME    00:00:00
END_DATE       03/31/2000
END_TIME       00:00:00
REPORT_STEP          00:10:00
WET_STEP             00:15:00
DRY_STEP             01:00:00
ROUTING_STEP         0:00:01
INERTIAL_DAMPING     PARTIAL
NORMAL_FLOW_LIMITED  BOTH
FORCE_MAIN_EQUATION  D-W
VARIABLE_STEP        0.75
LENGTHENING_STEP     0
MIN_SURFAREA         12.557
MAX_TRIALS           8
HEAD_TOLERANCE       0.005
SYS_FLOW_TOL         2
LAT_FLOW_TOL         2
MINIMUM_STEP         0.5
THREADS              1

[EVAPORATION]
;;Data Source    Parameters
;;-------------- ----------------
CONSTANT         0.0
DRY_ONLY         NO

[JUNCTIONS]
;;Name           Elevation  MaxDepth   InitDepth  SurDepth   Aponded   
;;-------------- ---------- ---------- ---------- ---------- ----------
101_0     72.233     0     0     0     0
101_1     72.128     0     0     0     0
101_2     72.023     0     0     0     0
101_3     71.919     0     0     0     0
101_4     71.814     0     0     0     0
101_5     71.709     0     0     0     0
101_6     71.605     0     0     0     0
101_7     71.5     0     0     0     0
101_8     71.395     0     0     0     0
101_9     71.291     0     0     0     0
101_10     71.186     0     0     0     0
102_0     70.88     0     0     0     0
102_1     70.698     0     0     0     0
102_2     70.515     0     0     0     0
102_3     70.333     0     0     0     0
102_4     70.15     0     0     0     0
102_5     69.968     0     0     0     0
102_6     69.785     0     0     0     0
102_7     69.603     0     0     0     0
102_8     69.42     0     0     0     0
102_9     69.237     0     0     0     0
102_10     69.055     0     0     0     0
103_0     68.726     0     0     0     0
103_1     68.602     0     0     0     0
103_2     68.478     0     0     0     0
103_3     68.354     0     0     0     0
103_4     68.229     0     0     0     0
103_5     68.105     0     0     0     0
103_6     67.981     0     0     0     0
104_0      67.097      0      0      0      0
105_0      66.318      0      0      0      0
106_0      70.915      0      0      0      0
106_1      70.829      0      0      0      0
106_2      70.743      0      0      0      0
106_3      70.658      0      0      0      0
106_4      70.572      0      0      0      0
106_5      70.486      0      0      0      0
106_6      70.401      0      0      0      0
106_7      70.315      0      0      0      0
106_8      70.229      0      0      0      0
106_9      70.144      0      0      0      0
106_10      70.058      0      0      0      0
106_11      69.972      0      0      0      0
106_12      69.887      0      0      0      0
106_13      69.801      0      0      0      0
106_14      69.715      0      0      0      0
106_15      69.630      0      0      0      0
106_16      69.544      0      0      0      0
106_17      69.458      0      0      0      0
106_18      69.373      0      0      0      0
106_19      69.287      0      0      0      0
106_20      69.201      0      0      0      0
106_21      69.116      0      0      0      0
106_22      69.030      0      0      0      0
106_23      68.944      0      0      0      0
106_24      68.859      0      0      0      0
106_25      68.773      0      0      0      0
106_26      68.687      0      0      0      0
106_27      68.602      0      0      0      0
106_28      68.516      0      0      0      0
106_29      68.430      0      0      0      0
106_30      68.345      0      0      0      0
106_31      68.259      0      0      0      0
106_32      68.173      0      0      0      0
106_33      68.088      0      0      0      0
106_34      68.002      0      0      0      0
106_35      67.916      0      0      0      0
106_36      67.831      0      0      0      0
106_37      67.745      0      0      0      0
106_38      67.659      0      0      0      0
106_39      67.574      0      0      0      0
106_40      67.488      0      0      0      0
106_41      67.402      0      0      0      0
106_42      67.317      0      0      0      0
106_43      67.231      0      0      0      0
106_44      67.145      0      0      0      0
106_45      67.060      0      0      0      0
106_46      66.974      0      0      0      0
106_47      66.888      0      0      0      0
106_48      66.803      0      0      0      0
106_49      66.717      0      0      0      0
106_50      66.632      0      0      0      0
106_51      66.546      0      0      0      0
106_52      66.460      0      0      0      0
106_53      66.375      0      0      0      0
107_0      66.286      0      0      0      0
107_1      66.285      0      0      0      0
107_2      66.283      0      0      0      0
107_3      66.282      0      0      0      0
107_4      66.280      0      0      0      0
107_5      66.279      0      0      0      0
107_6      66.277      0      0      0      0
107_7      66.276      0      0      0      0
107_8      66.275      0      0      0      0
108_0      66.272      0      0      0      0
108_1      66.270      0      0      0      0
108_2      66.269      0      0      0      0
108_3      66.267      0      0      0      0
108_4      66.266      0      0      0      0
108_5      66.264      0      0      0      0
108_6      66.263      0      0      0      0
108_7      66.261      0      0      0      0
108_8      66.260      0      0      0      0
108_9      66.258      0      0      0      0
108_10      66.257      0      0      0      0
108_11      66.255      0      0      0      0
108_12      66.254      0      0      0      0
108_13      66.252      0      0      0      0
108_14      66.251      0      0      0      0
108_15      66.249      0      0      0      0
108_16      66.248      0      0      0      0
108_17      66.246      0      0      0      0
108_18      66.245      0      0      0      0
108_19      66.243      0      0      0      0
108_20      66.242      0      0      0      0
108_21      66.240      0      0      0      0
108_22      66.239      0      0      0      0
108_23      66.237      0      0      0      0
108_24      66.236      0      0      0      0
108_25      66.234      0      0      0      0
108_26      66.233      0      0      0      0
108_27      66.231      0      0      0      0
108_28      66.230      0      0      0      0
108_29      66.229      0      0      0      0
108_30      66.227      0      0      0      0
108_31      66.226      0      0      0      0
108_32      66.224      0      0      0      0
630035944      68.860      0      0      0      0
630035940      71.075      0      0      0      0
630035931      72.344      0      0      0      0
630036031      66.288      0      0      0      0
630036030      66.273      0      0      0      0
630035943      67.847      0      0      0      0
630036026      66.348      0      0      0      0
630036028      71.002      0      0      0      0



[OUTFALLS]
;;Name           Elevation  Type       Stage Data       Gated    Route To        
;;-------------- ---------- ---------- ---------------- -------- ----------------
630036032      66.223      FIXED      3.00      YES


[CONDUITS]
;;Name           From Node        To Node          Length     Roughness  InOffset   OutOffset  InitFlow   MaxFlow   
;;-------------- ---------------- ---------------- ---------- ---------- ---------- ---------- ---------- ----------
1	630035931	101_0	150	0.055	0	0
2	101_0	101_1	141.4	0.055	0	0
3	101_1	101_2	141.4	0.055	0	0
4	101_2	101_3	141.4	0.055	0	0
5	101_3	101_4	141.4	0.055	0	0
6	101_4	101_5	141.4	0.055	0	0
7	101_5	101_6	141.4	0.055	0	0
8	101_6	101_7	141.4	0.055	0	0
9	101_7	101_8	141.4	0.055	0	0
10	101_8	101_9	141.4	0.055	0	0
11	101_9	101_10	141.4	0.055	0	0
12	101_10	630035940	150	0.055	0	0
13	630035940	102_0	150	0.055	0	0
14	102_0	102_1	140.4	0.055	0	0
15	102_1	102_2	140.4	0.055	0	0
16	102_2	102_3	140.4	0.055	0	0
17	102_3	102_4	140.4	0.055	0	0
18	102_4	102_5	140.4	0.055	0	0
19	102_5	102_6	140.4	0.055	0	0
20	102_6	102_7	140.4	0.055	0	0
21	102_7	102_8	140.4	0.055	0	0
22	102_8	102_9	140.4	0.055	0	0
23	102_9	102_10	140.4	0.055	0	0
24	102_10	630035944	150	0.055	0	0
25	630035944	103_0	150	0.055	0	0
26	103_0	103_1	139.6	0.055	0	0
27	103_1	103_2	139.6	0.055	0	0
28	103_2	103_3	139.6	0.055	0	0
29	103_3	103_4	139.6	0.055	0	0
30	103_4	103_5	139.6	0.055	0	0
31	103_5	103_6	139.6	0.055	0	0
32	103_6	630035943	150	0.055	0	0
33	630035943	104_0	150	0.055	0	0
34	104_0	630036026	150	0.055	0	0
35	630036026	105_0	150	0.055	0	0
36	105_0	630036031	150	0.055	0	0
37	630036028	106_0	150	0.05	0	0
38	106_0	106_1	147.7	0.05	0	0
39	106_1	106_2	147.7	0.05	0	0
40	106_2	106_3	147.7	0.05	0	0
41	106_3	106_4	147.7	0.05	0	0
42	106_4	106_5	147.7	0.05	0	0
43	106_5	106_6	147.7	0.05	0	0
44	106_6	106_7	147.7	0.05	0	0
45	106_7	106_8	147.7	0.05	0	0
46	106_8	106_9	147.7	0.05	0	0
47	106_9	106_10	147.7	0.05	0	0
48	106_10	106_11	147.7	0.05	0	0
49	106_11	106_12	147.7	0.05	0	0
50	106_12	106_13	147.7	0.05	0	0
51	106_13	106_14	147.7	0.05	0	0
52	106_14	106_15	147.7	0.05	0	0
53	106_15	106_16	147.7	0.05	0	0
54	106_16	106_17	147.7	0.05	0	0
55	106_17	106_18	147.7	0.05	0	0
56	106_18	106_19	147.7	0.05	0	0
57	106_19	106_20	147.7	0.05	0	0
58	106_20	106_21	147.7	0.05	0	0
59	106_21	106_22	147.7	0.05	0	0
60	106_22	106_23	147.7	0.05	0	0
61	106_23	106_24	147.7	0.05	0	0
62	106_24	106_25	147.7	0.05	0	0
63	106_25	106_26	147.7	0.05	0	0
64	106_26	106_27	147.7	0.05	0	0
65	106_27	106_28	147.7	0.05	0	0
66	106_28	106_29	147.7	0.05	0	0
67	106_29	106_30	147.7	0.05	0	0
68	106_30	106_31	147.7	0.05	0	0
69	106_31	106_32	147.7	0.05	0	0
70	106_32	106_33	147.7	0.05	0	0
71	106_33	106_34	147.7	0.05	0	0
72	106_34	106_35	147.7	0.05	0	0
73	106_35	106_36	147.7	0.05	0	0
74	106_36	106_37	147.7	0.05	0	0
75	106_37	106_38	147.7	0.05	0	0
76	106_38	106_39	147.7	0.05	0	0
77	106_39	106_40	147.7	0.05	0	0
78	106_40	106_41	147.7	0.05	0	0
79	106_41	106_42	147.7	0.05	0	0
80	106_42	106_43	147.7	0.05	0	0
81	106_43	106_44	147.7	0.05	0	0
82	106_44	106_45	147.7	0.05	0	0
83	106_45	106_46	147.7	0.05	0	0
84	106_46	106_47	147.7	0.05	0	0
85	106_47	106_48	147.7	0.05	0	0
86	106_48	106_49	147.7	0.05	0	0
87	106_49	106_50	147.7	0.05	0	0
88	106_50	106_51	147.7	0.05	0	0
89	106_51	106_52	147.7	0.05	0	0
90	106_52	106_53	147.7	0.05	0	0
91	106_53	630036031	150	0.05	0	0
92	630036031	107_0	150	0.05	0	0
93	107_0	107_1	142.9	0.05	0	0
94	107_1	107_2	142.9	0.05	0	0
95	107_2	107_3	142.9	0.05	0	0
96	107_3	107_4	142.9	0.05	0	0
97	107_4	107_5	142.9	0.05	0	0
98	107_5	107_6	142.9	0.05	0	0
99	107_6	107_7	142.9	0.05	0	0
100	107_7	107_8	142.9	0.05	0	0
101	107_8	630036030	150	0.05	0	0
102	630036030	108_0	150	0.05	0	0
103	108_0	108_1	148.5	0.05	0	0
104	108_1	108_2	148.5	0.05	0	0
105	108_2	108_3	148.5	0.05	0	0
106	108_3	108_4	148.5	0.05	0	0
107	108_4	108_5	148.5	0.05	0	0
108	108_5	108_6	148.5	0.05	0	0
109	108_6	108_7	148.5	0.05	0	0
110	108_7	108_8	148.5	0.05	0	0
111	108_8	108_9	148.5	0.05	0	0
112	108_9	108_10	148.5	0.05	0	0
113	108_10	108_11	148.5	0.05	0	0
114	108_11	108_12	148.5	0.05	0	0
115	108_12	108_13	148.5	0.05	0	0
116	108_13	108_14	148.5	0.05	0	0
117	108_14	108_15	148.5	0.05	0	0
118	108_15	108_16	148.5	0.05	0	0
119	108_16	108_17	148.5	0.05	0	0
120	108_17	108_18	148.5	0.05	0	0
121	108_18	108_19	148.5	0.05	0	0
122	108_19	108_20	148.5	0.05	0	0
123	108_20	108_21	148.5	0.05	0	0
124	108_21	108_22	148.5	0.05	0	0
125	108_22	108_23	148.5	0.05	0	0
126	108_23	108_24	148.5	0.05	0	0
127	108_24	108_25	148.5	0.05	0	0
128	108_25	108_26	148.5	0.05	0	0
129	108_26	108_27	148.5	0.05	0	0
130	108_27	108_28	148.5	0.05	0	0
131	108_28	108_29	148.5	0.05	0	0
132	108_29	108_30	148.5	0.05	0	0
133	108_30	108_31	148.5	0.05	0	0
134	108_31	108_32	148.5	0.05	0	0
135	108_32	630036032	150	0.05	0	0
      





[XSECTIONS]
;;Link           Shape        Geom1            Geom2      Geom3      Geom4      Barrels    Culvert   
;;-------------- ------------ ---------------- ---------- ---------- ---------- ---------- ----------
1	TRAPEZOIDAL	100	10	0.05	0.05	
2	TRAPEZOIDAL	100	10	0.05	0.05	
3	TRAPEZOIDAL	100	10	0.05	0.05	
4	TRAPEZOIDAL	100	10	0.05	0.05	
5	TRAPEZOIDAL	100	10	0.05	0.05	
6	TRAPEZOIDAL	100	10	0.05	0.05	
7	TRAPEZOIDAL	100	10	0.05	0.05	
8	TRAPEZOIDAL	100	10	0.05	0.05	
9	TRAPEZOIDAL	100	10	0.05	0.05	
10	TRAPEZOIDAL	100	10	0.05	0.05	
11	TRAPEZOIDAL	100	10	0.05	0.05	
12	TRAPEZOIDAL	100	10	0.05	0.05	
13	TRAPEZOIDAL	100	10	0.05	0.05	
14	TRAPEZOIDAL	100	10	0.05	0.05	
15	TRAPEZOIDAL	100	10	0.05	0.05	
16	TRAPEZOIDAL	100	10	0.05	0.05	
17	TRAPEZOIDAL	100	10	0.05	0.05	
18	TRAPEZOIDAL	100	10	0.05	0.05	
19	TRAPEZOIDAL	100	10	0.05	0.05	
20	TRAPEZOIDAL	100	10	0.05	0.05	
21	TRAPEZOIDAL	100	10	0.05	0.05	
22	TRAPEZOIDAL	100	10	0.05	0.05	
23	TRAPEZOIDAL	100	10	0.05	0.05	
24	TRAPEZOIDAL	100	10	0.05	0.05	
25	TRAPEZOIDAL	100	10	0.05	0.05	
26	TRAPEZOIDAL	100	10	0.05	0.05	
27	TRAPEZOIDAL	100	10	0.05	0.05	
28	TRAPEZOIDAL	100	10	0.05	0.05	
29	TRAPEZOIDAL	100	10	0.05	0.05	
30	TRAPEZOIDAL	100	10	0.05	0.05	
31	TRAPEZOIDAL	100	10	0.05	0.05	
32	TRAPEZOIDAL	100	10	0.05	0.05	
33	TRAPEZOIDAL	100	10	0.05	0.05	
34	TRAPEZOIDAL	100	10	0.05	0.05	
35	TRAPEZOIDAL	100	10	0.05	0.05	
36	TRAPEZOIDAL	100	10	0.05	0.05	
37	TRAPEZOIDAL	100	30	0.05	0.05	
38	TRAPEZOIDAL	100	30	0.05	0.05	
39	TRAPEZOIDAL	100	30	0.05	0.05	
40	TRAPEZOIDAL	100	30	0.05	0.05	
41	TRAPEZOIDAL	100	30	0.05	0.05	
42	TRAPEZOIDAL	100	30	0.05	0.05	
43	TRAPEZOIDAL	100	30	0.05	0.05	
44	TRAPEZOIDAL	100	30	0.05	0.05	
45	TRAPEZOIDAL	100	30	0.05	0.05	
46	TRAPEZOIDAL	100	30	0.05	0.05	
47	TRAPEZOIDAL	100	30	0.05	0.05	
48	TRAPEZOIDAL	100	30	0.05	0.05	
49	TRAPEZOIDAL	100	30	0.05	0.05	
50	TRAPEZOIDAL	100	30	0.05	0.05	
51	TRAPEZOIDAL	100	30	0.05	0.05	
52	TRAPEZOIDAL	100	30	0.05	0.05	
53	TRAPEZOIDAL	100	30	0.05	0.05	
54	TRAPEZOIDAL	100	30	0.05	0.05	
55	TRAPEZOIDAL	100	30	0.05	0.05	
56	TRAPEZOIDAL	100	30	0.05	0.05	
57	TRAPEZOIDAL	100	30	0.05	0.05	
58	TRAPEZOIDAL	100	30	0.05	0.05	
59	TRAPEZOIDAL	100	30	0.05	0.05	
60	TRAPEZOIDAL	100	30	0.05	0.05	
61	TRAPEZOIDAL	100	30	0.05	0.05	
62	TRAPEZOIDAL	100	30	0.05	0.05	
63	TRAPEZOIDAL	100	30	0.05	0.05	
64	TRAPEZOIDAL	100	30	0.05	0.05	
65	TRAPEZOIDAL	100	30	0.05	0.05	
66	TRAPEZOIDAL	100	30	0.05	0.05	
67	TRAPEZOIDAL	100	30	0.05	0.05	
68	TRAPEZOIDAL	100	30	0.05	0.05	
69	TRAPEZOIDAL	100	30	0.05	0.05	
70	TRAPEZOIDAL	100	30	0.05	0.05	
71	TRAPEZOIDAL	100	30	0.05	0.05	
72	TRAPEZOIDAL	100	30	0.05	0.05	
73	TRAPEZOIDAL	100	30	0.05	0.05	
74	TRAPEZOIDAL	100	30	0.05	0.05	
75	TRAPEZOIDAL	100	30	0.05	0.05	
76	TRAPEZOIDAL	100	30	0.05	0.05	
77	TRAPEZOIDAL	100	30	0.05	0.05	
78	TRAPEZOIDAL	100	30	0.05	0.05	
79	TRAPEZOIDAL	100	30	0.05	0.05	
80	TRAPEZOIDAL	100	30	0.05	0.05	
81	TRAPEZOIDAL	100	30	0.05	0.05	
82	TRAPEZOIDAL	100	30	0.05	0.05	
83	TRAPEZOIDAL	100	30	0.05	0.05	
84	TRAPEZOIDAL	100	30	0.05	0.05	
85	TRAPEZOIDAL	100	30	0.05	0.05	
86	TRAPEZOIDAL	100	30	0.05	0.05	
87	TRAPEZOIDAL	100	30	0.05	0.05	
88	TRAPEZOIDAL	100	30	0.05	0.05	
89	TRAPEZOIDAL	100	30	0.05	0.05	
90	TRAPEZOIDAL	100	30	0.05	0.05	
91	TRAPEZOIDAL	100	30	0.05	0.05	
92	TRAPEZOIDAL	100	30	0.05	0.05	
93	TRAPEZOIDAL	100	30	0.05	0.05	
94	TRAPEZOIDAL	100	30	0.05	0.05	
95	TRAPEZOIDAL	100	30	0.05	0.05	
96	TRAPEZOIDAL	100	30	0.05	0.05	
97	TRAPEZOIDAL	100	30	0.05	0.05	
98	TRAPEZOIDAL	100	30	0.05	0.05	
99	TRAPEZOIDAL	100	30	0.05	0.05	
100	TRAPEZOIDAL	100	30	0.05	0.05	
101	TRAPEZOIDAL	100	30	0.05	0.05	
102	TRAPEZOIDAL	100	30	0.05	0.05	
103	TRAPEZOIDAL	100	30	0.05	0.05	
104	TRAPEZOIDAL	100	30	0.05	0.05	
105	TRAPEZOIDAL	100	30	0.05	0.05	
106	TRAPEZOIDAL	100	30	0.05	0.05	
107	TRAPEZOIDAL	100	30	0.05	0.05	
108	TRAPEZOIDAL	100	30	0.05	0.05	
109	TRAPEZOIDAL	100	30	0.05	0.05	
110	TRAPEZOIDAL	100	30	0.05	0.05	
111	TRAPEZOIDAL	100	30	0.05	0.05	
112	TRAPEZOIDAL	100	30	0.05	0.05	
113	TRAPEZOIDAL	100	30	0.05	0.05	
114	TRAPEZOIDAL	100	30	0.05	0.05	
115	TRAPEZOIDAL	100	30	0.05	0.05	
116	TRAPEZOIDAL	100	30	0.05	0.05	
117	TRAPEZOIDAL	100	30	0.05	0.05	
118	TRAPEZOIDAL	100	30	0.05	0.05	
119	TRAPEZOIDAL	100	30	0.05	0.05	
120	TRAPEZOIDAL	100	30	0.05	0.05	
121	TRAPEZOIDAL	100	30	0.05	0.05	
122	TRAPEZOIDAL	100	30	0.05	0.05	
123	TRAPEZOIDAL	100	30	0.05	0.05	
124	TRAPEZOIDAL	100	30	0.05	0.05	
125	TRAPEZOIDAL	100	30	0.05	0.05	
126	TRAPEZOIDAL	100	30	0.05	0.05	
127	TRAPEZOIDAL	100	30	0.05	0.05	
128	TRAPEZOIDAL	100	30	0.05	0.05	
129	TRAPEZOIDAL	100	30	0.05	0.05	
130	TRAPEZOIDAL	100	30	0.05	0.05	
131	TRAPEZOIDAL	100	30	0.05	0.05	
132	TRAPEZOIDAL	100	30	0.05	0.05	
133	TRAPEZOIDAL	100	30	0.05	0.05	
134	TRAPEZOIDAL	100	30	0.05	0.05	
135	TRAPEZOIDAL	100	30	0.05	0.05	




[TRANSECTS]
;;Transect Data in HEC-2 format
;


[INFLOWS]
;;Node           Constituent      Time Series      Type     Mfactor  Sfactor  Baseline Pattern
;;-------------- ---------------- ---------------- -------- -------- -------- -------- --------
630035931      FLOW      630035931      FLOW      1.0      1.0
108_32      FLOW      108_32      FLOW      1.0      0.0            
108_31      FLOW      108_31      FLOW      1.0      0.0            
108_30      FLOW      108_30      FLOW      1.0      0.0            
108_29      FLOW      108_29      FLOW      1.0      0.0            
108_28      FLOW      108_28      FLOW      1.0      0.0            
108_27      FLOW      108_27      FLOW      1.0      0.0            
108_26      FLOW      108_26      FLOW      1.0      0.0            
108_25      FLOW      108_25      FLOW      1.0      0.0            
108_24      FLOW      108_24      FLOW      1.0      0.0            
108_23      FLOW      108_23      FLOW      1.0      0.0            
108_22      FLOW      108_22      FLOW      1.0      0.0            
108_21      FLOW      108_21      FLOW      1.0      0.0            
108_20      FLOW      108_20      FLOW      1.0      0.0            
108_19      FLOW      108_19      FLOW      1.0      0.0            
108_18      FLOW      108_18      FLOW      1.0      0.0            
108_17      FLOW      108_17      FLOW      1.0      0.0            
108_16      FLOW      108_16      FLOW      1.0      0.0            
108_15      FLOW      108_15      FLOW      1.0      0.0            
108_14      FLOW      108_14      FLOW      1.0      0.0            
108_13      FLOW      108_13      FLOW      1.0      0.0            
108_12      FLOW      108_12      FLOW      1.0      0.0            
108_11      FLOW      108_11      FLOW      1.0      0.0            
108_10      FLOW      108_10      FLOW      1.0      0.0            
108_9      FLOW      108_9      FLOW      1.0      0.0            
108_8      FLOW      108_8      FLOW      1.0      0.0            
108_7      FLOW      108_7      FLOW      1.0      0.0            
108_6      FLOW      108_6      FLOW      1.0      0.0            
108_5      FLOW      108_5      FLOW      1.0      0.0            
108_4      FLOW      108_4      FLOW      1.0      0.0            
108_3      FLOW      108_3      FLOW      1.0      0.0            
108_2      FLOW      108_2      FLOW      1.0      0.0            
108_1      FLOW      108_1      FLOW      1.0      0.0            
108_0      FLOW      108_0      FLOW      1.0      0.0   
107_8      FLOW      107_8      FLOW      1.0      0.0            
107_7      FLOW      107_7      FLOW      1.0      0.0            
107_6      FLOW      107_6      FLOW      1.0      0.0            
107_5      FLOW      107_5      FLOW      1.0      0.0            
107_4      FLOW      107_4      FLOW      1.0      0.0            
107_3      FLOW      107_3      FLOW      1.0      0.0            
107_2      FLOW      107_2      FLOW      1.0      0.0            
107_1      FLOW      107_1      FLOW      1.0      0.0            
107_0      FLOW      107_0      FLOW      1.0      0.0 
104_0      FLOW      104_0      FLOW      1.0      0.0            
105_0      FLOW      105_0      FLOW      1.0      0.0            
106_53      FLOW      106_53      FLOW      1.0      0.0            
106_52      FLOW      106_52      FLOW      1.0      0.0            
106_51      FLOW      106_51      FLOW      1.0      0.0            
106_50      FLOW      106_50      FLOW      1.0      0.0            
106_49      FLOW      106_49      FLOW      1.0      0.0            
106_48      FLOW      106_48      FLOW      1.0      0.0            
106_47      FLOW      106_47      FLOW      1.0      0.0            
106_46      FLOW      106_46      FLOW      1.0      0.0            
106_45      FLOW      106_45      FLOW      1.0      0.0            
106_44      FLOW      106_44      FLOW      1.0      0.0            
106_43      FLOW      106_43      FLOW      1.0      0.0            
106_42      FLOW      106_42      FLOW      1.0      0.0            
106_41      FLOW      106_41      FLOW      1.0      0.0            
106_40      FLOW      106_40      FLOW      1.0      0.0            
106_39      FLOW      106_39      FLOW      1.0      0.0            
106_38      FLOW      106_38      FLOW      1.0      0.0            
106_37      FLOW      106_37      FLOW      1.0      0.0            
106_36      FLOW      106_36      FLOW      1.0      0.0            
106_35      FLOW      106_35      FLOW      1.0      0.0            
106_34      FLOW      106_34      FLOW      1.0      0.0            
106_33      FLOW      106_33      FLOW      1.0      0.0            
106_32      FLOW      106_32      FLOW      1.0      0.0            
106_31      FLOW      106_31      FLOW      1.0      0.0            
106_30      FLOW      106_30      FLOW      1.0      0.0            
106_29      FLOW      106_29      FLOW      1.0      0.0            
106_28      FLOW      106_28      FLOW      1.0      0.0            
106_27      FLOW      106_27      FLOW      1.0      0.0            
106_26      FLOW      106_26      FLOW      1.0      0.0            
106_25      FLOW      106_25      FLOW      1.0      0.0            
106_24      FLOW      106_24      FLOW      1.0      0.0            
106_23      FLOW      106_23      FLOW      1.0      0.0            
106_22      FLOW      106_22      FLOW      1.0      0.0            
106_21      FLOW      106_21      FLOW      1.0      0.0            
106_20      FLOW      106_20      FLOW      1.0      0.0            
106_19      FLOW      106_19      FLOW      1.0      0.0            
106_18      FLOW      106_18      FLOW      1.0      0.0            
106_17      FLOW      106_17      FLOW      1.0      0.0            
106_16      FLOW      106_16      FLOW      1.0      0.0            
106_15      FLOW      106_15      FLOW      1.0      0.0            
106_14      FLOW      106_14      FLOW      1.0      0.0            
106_13      FLOW      106_13      FLOW      1.0      0.0            
106_12      FLOW      106_12      FLOW      1.0      0.0            
106_11      FLOW      106_11      FLOW      1.0      0.0            
106_10      FLOW      106_10      FLOW      1.0      0.0            
106_9      FLOW      106_9      FLOW      1.0      0.0            
106_8      FLOW      106_8      FLOW      1.0      0.0            
106_7      FLOW      106_7      FLOW      1.0      0.0            
106_6      FLOW      106_6      FLOW      1.0      0.0            
106_5      FLOW      106_5      FLOW      1.0      0.0            
106_4      FLOW      106_4      FLOW      1.0      0.0            
106_3      FLOW      106_3      FLOW      1.0      0.0            
106_2      FLOW      106_2      FLOW      1.0      0.0            
106_1      FLOW      106_1      FLOW      1.0      0.0            
106_0      FLOW      106_0      FLOW      1.0      0.0     
630036028      FLOW      630036028      FLOW      1.0      1.0            
    



[TIMESERIES]
;;Name           Date       Time       Value     
;;-------------- ---------- ---------- ----------
630035931      FILE     "/home/bhodges/SWMMengine_Public/SWMM5plus/test_cases/Colorado_debug_smaller/External_Files_Small/630035931.dat"
108_32      FILE     "/home/bhodges/SWMMengine_Public/SWMM5plus/test_cases/Colorado_debug_smaller/External_Files_Small/108.dat"
108_31      FILE     "/home/bhodges/SWMMengine_Public/SWMM5plus/test_cases/Colorado_debug_smaller/External_Files_Small/108.dat"
108_30      FILE     "/home/bhodges/SWMMengine_Public/SWMM5plus/test_cases/Colorado_debug_smaller/External_Files_Small/108.dat"
108_29      FILE     "/home/bhodges/SWMMengine_Public/SWMM5plus/test_cases/Colorado_debug_smaller/External_Files_Small/108.dat"
108_28      FILE     "/home/bhodges/SWMMengine_Public/SWMM5plus/test_cases/Colorado_debug_smaller/External_Files_Small/108.dat"
108_27      FILE     "/home/bhodges/SWMMengine_Public/SWMM5plus/test_cases/Colorado_debug_smaller/External_Files_Small/108.dat"
108_26      FILE     "/home/bhodges/SWMMengine_Public/SWMM5plus/test_cases/Colorado_debug_smaller/External_Files_Small/108.dat"
108_25      FILE     "/home/bhodges/SWMMengine_Public/SWMM5plus/test_cases/Colorado_debug_smaller/External_Files_Small/108.dat"
108_24      FILE     "/home/bhodges/SWMMengine_Public/SWMM5plus/test_cases/Colorado_debug_smaller/External_Files_Small/108.dat"
108_23      FILE     "/home/bhodges/SWMMengine_Public/SWMM5plus/test_cases/Colorado_debug_smaller/External_Files_Small/108.dat"
108_22      FILE     "/home/bhodges/SWMMengine_Public/SWMM5plus/test_cases/Colorado_debug_smaller/External_Files_Small/108.dat"
108_21      FILE     "/home/bhodges/SWMMengine_Public/SWMM5plus/test_cases/Colorado_debug_smaller/External_Files_Small/108.dat"
108_20      FILE     "/home/bhodges/SWMMengine_Public/SWMM5plus/test_cases/Colorado_debug_smaller/External_Files_Small/108.dat"
108_19      FILE     "/home/bhodges/SWMMengine_Public/SWMM5plus/test_cases/Colorado_debug_smaller/External_Files_Small/108.dat"
108_18      FILE     "/home/bhodges/SWMMengine_Public/SWMM5plus/test_cases/Colorado_debug_smaller/External_Files_Small/108.dat"
108_17      FILE     "/home/bhodges/SWMMengine_Public/SWMM5plus/test_cases/Colorado_debug_smaller/External_Files_Small/108.dat"
108_16      FILE     "/home/bhodges/SWMMengine_Public/SWMM5plus/test_cases/Colorado_debug_smaller/External_Files_Small/108.dat"
108_15      FILE     "/home/bhodges/SWMMengine_Public/SWMM5plus/test_cases/Colorado_debug_smaller/External_Files_Small/108.dat"
108_14      FILE     "/home/bhodges/SWMMengine_Public/SWMM5plus/test_cases/Colorado_debug_smaller/External_Files_Small/108.dat"
108_13      FILE     "/home/bhodges/SWMMengine_Public/SWMM5plus/test_cases/Colorado_debug_smaller/External_Files_Small/108.dat"
108_12      FILE     "/home/bhodges/SWMMengine_Public/SWMM5plus/test_cases/Colorado_debug_smaller/External_Files_Small/108.dat"
108_11      FILE     "/home/bhodges/SWMMengine_Public/SWMM5plus/test_cases/Colorado_debug_smaller/External_Files_Small/108.dat"
108_10      FILE     "/home/bhodges/SWMMengine_Public/SWMM5plus/test_cases/Colorado_debug_smaller/External_Files_Small/108.dat"
108_9      FILE     "/home/bhodges/SWMMengine_Public/SWMM5plus/test_cases/Colorado_debug_smaller/External_Files_Small/108.dat"
108_8      FILE     "/home/bhodges/SWMMengine_Public/SWMM5plus/test_cases/Colorado_debug_smaller/External_Files_Small/108.dat"
108_7      FILE     "/home/bhodges/SWMMengine_Public/SWMM5plus/test_cases/Colorado_debug_smaller/External_Files_Small/108.dat"
108_6      FILE     "/home/bhodges/SWMMengine_Public/SWMM5plus/test_cases/Colorado_debug_smaller/External_Files_Small/108.dat"
108_5      FILE     "/home/bhodges/SWMMengine_Public/SWMM5plus/test_cases/Colorado_debug_smaller/External_Files_Small/108.dat"
108_4      FILE     "/home/bhodges/SWMMengine_Public/SWMM5plus/test_cases/Colorado_debug_smaller/External_Files_Small/108.dat"
108_3      FILE     "/home/bhodges/SWMMengine_Public/SWMM5plus/test_cases/Colorado_debug_smaller/External_Files_Small/108.dat"
108_2      FILE     "/home/bhodges/SWMMengine_Public/SWMM5plus/test_cases/Colorado_debug_smaller/External_Files_Small/108.dat"
108_1      FILE     "/home/bhodges/SWMMengine_Public/SWMM5plus/test_cases/Colorado_debug_smaller/External_Files_Small/108.dat"
108_0      FILE     "/home/bhodges/SWMMengine_Public/SWMM5plus/test_cases/Colorado_debug_smaller/External_Files_Small/108.dat"
107_8      FILE     "/home/bhodges/SWMMengine_Public/SWMM5plus/test_cases/Colorado_debug_smaller/External_Files_Small/107.dat"
107_7      FILE     "/home/bhodges/SWMMengine_Public/SWMM5plus/test_cases/Colorado_debug_smaller/External_Files_Small/107.dat"
107_6      FILE     "/home/bhodges/SWMMengine_Public/SWMM5plus/test_cases/Colorado_debug_smaller/External_Files_Small/107.dat"
107_5      FILE     "/home/bhodges/SWMMengine_Public/SWMM5plus/test_cases/Colorado_debug_smaller/External_Files_Small/107.dat"
107_4      FILE     "/home/bhodges/SWMMengine_Public/SWMM5plus/test_cases/Colorado_debug_smaller/External_Files_Small/107.dat"
107_3      FILE     "/home/bhodges/SWMMengine_Public/SWMM5plus/test_cases/Colorado_debug_smaller/External_Files_Small/107.dat"
107_2      FILE     "/home/bhodges/SWMMengine_Public/SWMM5plus/test_cases/Colorado_debug_smaller/External_Files_Small/107.dat"
107_1      FILE     "/home/bhodges/SWMMengine_Public/SWMM5plus/test_cases/Colorado_debug_smaller/External_Files_Small/107.dat"
107_0      FILE     "/home/bhodges/SWMMengine_Public/SWMM5plus/test_cases/Colorado_debug_smaller/External_Files_Small/107.dat"
104_0      FILE     "/home/bhodges/SWMMengine_Public/SWMM5plus/test_cases/Colorado_debug_smaller/External_Files_Small/104.dat"
105_0      FILE     "/home/bhodges/SWMMengine_Public/SWMM5plus/test_cases/Colorado_debug_smaller/External_Files_Small/104.dat"
106_53      FILE     "/home/bhodges/SWMMengine_Public/SWMM5plus/test_cases/Colorado_debug_smaller/External_Files_Small/106.dat"
106_52      FILE     "/home/bhodges/SWMMengine_Public/SWMM5plus/test_cases/Colorado_debug_smaller/External_Files_Small/106.dat"