[TITLE]
;;Project Title/Notes
Pump Type 1 examp

[OPTIONS]
;;Option             Value
FLOW_UNITS           CMS
INFILTRATION         HORTON
FLOW_ROUTING         DYNWAVE
LINK_OFFSETS         DEPTH
MIN_SLOPE            0
ALLOW_PONDING        NO
SKIP_STEADY_STATE    NO

START_DATE           07/24/2015
START_TIME           00:00:00
REPORT_START_DATE    07/24/2015
REPORT_START_TIME    00:00:00
END_DATE             07/24/2015
END_TIME             01:00:00
SWEEP_START          01/01
SWEEP_END            12/31
DRY_DAYS             0
REPORT_STEP          00:01:00
WET_STEP             00:05:00
DRY_STEP             01:00:00
ROUTING_STEP         0:00:01 
RULE_STEP            00:00:00

INERTIAL_DAMPING     NONE
NORMAL_FLOW_LIMITED  BOTH
FORCE_MAIN_EQUATION  H-W
VARIABLE_STEP        0.00
LENGTHENING_STEP     0
MIN_SURFAREA         1.14
MAX_TRIALS           8
HEAD_TOLERANCE       0.0015
SYS_FLOW_TOL         5
LAT_FLOW_TOL         5
MINIMUM_STEP         0.5
THREADS              1

[EVAPORATION]
;;Data Source    Parameters
;;-------------- ----------------
CONSTANT         0.0
DRY_ONLY         NO

[JUNCTIONS]
;;Name           Elevation  MaxDepth   InitDepth  SurDepth   Aponded   
;;-------------- ---------- ---------- ---------- ---------- ----------
J2                10         3          0          0          0         

[OUTFALLS]
;;Name           Elevation  Type       Stage Data       Gated    Route To        
;;-------------- ---------- ---------- ---------------- -------- ----------------
O4                10         FREE                        YES                      

[STORAGE]
;;Name           Elev.    MaxDepth   InitDepth  Shape       Curve Type/Params             SurDepth  Fevap      Psi      Ksat     IMD     
;;-------------- -------- ---------- ----------- ---------- ---------------------------- --------- --------  -------- -------- -----
S1                0        10         9.5        FUNCTIONAL  10       2                       0        0         0          

[CONDUITS]
;;Name           From Node        To Node          Length     Roughness  InOffset   OutOffset  InitFlow   MaxFlow   
;;-------------- ---------------- ---------------- ---------- ---------- ---------- ---------- ---------- ----------
C3                J2                O4              400        0.015       0          0          0          0         

[PUMPS]
;;Name           From Node        To Node          Pump Curve       Status   Startup Shutoff 
;;-------------- ---------------- ---------------- ---------------- ------ -------- --------
P1                S1                J2                PC4              ON       0.5        0.25       

[XSECTIONS]
;;Link           Shape        Geom1            Geom2      Geom3      Geom4      Barrels    Culvert   
;;-------------- ------------ ---------------- ---------- ---------- ---------- ---------- ----------
C3                CIRCULAR     3                0          0          0          1                    

[CURVES]
;;Name           Type       X-Value          Y-Value   
;;-------------- ---------- ----------       ----------
PC4           Pump4        0.5                  0.2   
PC4                        1.5                  0.6        
PC4                        2.5                 1.0    
PC4                        3.5                 1.5       
PC4                        4.5                 2.0           

[LOSSES]
;;Name           Kentry             Kexit          Kavg       Flap       Seepage 
;;-------------- ---------------- ---------------- ---------- ---------- ---------- -
C3                  0                 0               0        YES         0

[REPORT]
;;Reporting Options
SUBCATCHMENTS ALL
NODES ALL
LINKS ALL

[TAGS]

[MAP]
DIMENSIONS -858.772 0.000 10000.000 10000.000
Units      None

[COORDINATES]
;;Node           X-Coord            Y-Coord           
;;-------------- ------------------ ------------------
2                4012.201           4690.518          
4                6948.161           6906.355          
1                1462.341           4663.607          

[VERTICES]
;;Link           X-Coord            Y-Coord           
;;-------------- ------------------ ------------------

[PROFILES]
;;Name
;;------------ ----------
"profile_1"    C3

