[TITLE]
;;Project Title/Notes
Lavaca_Sample

[OPTIONS]
;;Option             Value
FLOW_UNITS           CMS
INFILTRATION         HORTON
FLOW_ROUTING         DYNWAVE
LINK_OFFSETS         DEPTH
MIN_SLOPE            0
ALLOW_PONDING        NO
SKIP_STEADY_STATE    NO

START_DATE           01/01/2000
START_TIME           00:00:00
REPORT_START_DATE    01/01/2000
REPORT_START_TIME    00:00:00
END_DATE       05/31/2000
END_TIME       00:00:00
SWEEP_START          01/01
SWEEP_END            12/31
DRY_DAYS             5
REPORT_STEP          01:00:00
WET_STEP             00:15:00
DRY_STEP             01:00:00
ROUTING_STEP         0:01:00 

INERTIAL_DAMPING     PARTIAL
NORMAL_FLOW_LIMITED  BOTH
FORCE_MAIN_EQUATION  D-W
VARIABLE_STEP        0.75
LENGTHENING_STEP     0
MIN_SURFAREA         12.557
MAX_TRIALS           8
HEAD_TOLERANCE       0.005
SYS_FLOW_TOL         5
LAT_FLOW_TOL         5
MINIMUM_STEP         0.5
THREADS              1

[EVAPORATION]
;;Data Source    Parameters
;;-------------- ----------------
CONSTANT         0.0
DRY_ONLY         NO

[JUNCTIONS]
;;Name           Elevation  MaxDepth   InitDepth  SurDepth   Aponded   
;;-------------- ---------- ---------- ---------- ---------- ----------
1515433_0      0.080      0      0      0      0
1515433_1      0.078      0      0      0      0
1515433_2      0.076      0      0      0      0
1515433_3      0.073      0      0      0      0
1515433_4      0.071      0      0      0      0
1515433_5      0.069      0      0      0      0
1515433_6      0.067      0      0      0      0
1515433_7      0.065      0      0      0      0
1515433_8      0.063      0      0      0      0
1515433_9      0.061      0      0      0      0
1515433_10      0.059      0      0      0      0
1515433_11      0.057      0      0      0      0
1515433_12      0.055      0      0      0      0
1515433_13      0.052      0      0      0      0
1515433_14      0.050      0      0      0      0
1515433_15      0.048      0      0      0      0
1515433_16      0.046      0      0      0      0
1515433_17      0.044      0      0      0      0
1515433_18      0.042      0      0      0      0
1515433_19      0.040      0      0      0      0
1515433_20      0.038      0      0      0      0
1515433_21      0.036      0      0      0      0
1515433_22      0.034      0      0      0      0
1515433_23      0.031      0      0      0      0
1515433_24      0.029      0      0      0      0
1515433_25      0.027      0      0      0      0
1515433_26      0.025      0      0      0      0
1515433_27      0.023      0      0      0      0
1515433_28      0.021      0      0      0      0
1515433_29      0.019      0      0      0      0
1515433_30      0.017      0      0      0      0
1515433_31      0.015      0      0      0      0
1515433_32      0.013      0      0      0      0
1515433_33      0.010      0      0      0      0
1515433_34      0.008      0      0      0      0
1515433_35      0.006      0      0      0      0
1515433_36      0.004      0      0      0      0
1515433_37      0.002      0      0      0      0
1515413_0      0.083      0      0      0      0
1515411_0      0.129      0      0      0      0
1515411_1      0.128      0      0      0      0
1515411_2      0.126      0      0      0      0
1515411_3      0.125      0      0      0      0
1515411_4      0.123      0      0      0      0
1515411_5      0.122      0      0      0      0
1515411_6      0.120      0      0      0      0
1515411_7      0.119      0      0      0      0
1515411_8      0.117      0      0      0      0
1515411_9      0.116      0      0      0      0
1515411_10      0.114      0      0      0      0
1515411_11      0.113      0      0      0      0
1515411_12      0.111      0      0      0      0
1515411_13      0.110      0      0      0      0
1515411_14      0.109      0      0      0      0
1515411_15      0.107      0      0      0      0
1515411_16      0.106      0      0      0      0
1515411_17      0.104      0      0      0      0
1515411_18      0.103      0      0      0      0
1515411_19      0.101      0      0      0      0
1515411_20      0.100      0      0      0      0
1515411_21      0.098      0      0      0      0
1515411_22      0.097      0      0      0      0
1515411_23      0.095      0      0      0      0
1515411_24      0.094      0      0      0      0
1515411_25      0.092      0      0      0      0
1515411_26      0.091      0      0      0      0
1515411_27      0.089      0      0      0      0
1515411_28      0.088      0      0      0      0
1515411_29      0.086      0      0      0      0
1515411_30      0.085      0      0      0      0
1515411_31      0.083      0      0      0      0
1515397_0      0.183      0      0      0      0
1515397_1      0.181      0      0      0      0
1515397_2      0.180      0      0      0      0
1515397_3      0.178      0      0      0      0
1515397_4      0.177      0      0      0      0
1515397_5      0.175      0      0      0      0
1515397_6      0.174      0      0      0      0
1515397_7      0.172      0      0      0      0
1515397_8      0.171      0      0      0      0
1515397_9      0.169      0      0      0      0
1515397_10      0.168      0      0      0      0
1515397_11      0.166      0      0      0      0
1515397_12      0.165      0      0      0      0
1515397_13      0.163      0      0      0      0
1515397_14      0.162      0      0      0      0
1515397_15      0.160      0      0      0      0
1515397_16      0.159      0      0      0      0
1515397_17      0.157      0      0      0      0
1515397_18      0.156      0      0      0      0
1515397_19      0.154      0      0      0      0
1515397_20      0.153      0      0      0      0
1515397_21      0.152      0      0      0      0
1515397_22      0.150      0      0      0      0
1515397_23      0.149      0      0      0      0
1515397_24      0.147      0      0      0      0
1515397_25      0.146      0      0      0      0
1515397_26      0.144      0      0      0      0
1515397_27      0.143      0      0      0      0
1515397_28      0.141      0      0      0      0
1515397_29      0.140      0      0      0      0
1515397_30      0.138      0      0      0      0
1515397_31      0.137      0      0      0      0
1515397_32      0.135      0      0      0      0
1515397_33      0.134      0      0      0      0
1515397_34      0.132      0      0      0      0
1515383_0      0.194      0      0      0      0
1515383_1      0.192      0      0      0      0
1515383_2      0.191      0      0      0      0
1515383_3      0.190      0      0      0      0
1515383_4      0.188      0      0      0      0
1515383_5      0.187      0      0      0      0
1515383_6      0.186      0      0      0      0
1515379_0      0.250      0      0      0      0
1515379_1      0.248      0      0      0      0
1515379_2      0.247      0      0      0      0
1515379_3      0.245      0      0      0      0
1515379_4      0.244      0      0      0      0
1515379_5      0.242      0      0      0      0
1515379_6      0.241      0      0      0      0
1515379_7      0.240      0      0      0      0
1515379_8      0.238      0      0      0      0
1515379_9      0.237      0      0      0      0
1515379_10      0.235      0      0      0      0
1515379_11      0.234      0      0      0      0
1515379_12      0.232      0      0      0      0
1515379_13      0.231      0      0      0      0
1515379_14      0.229      0      0      0      0
1515379_15      0.228      0      0      0      0
1515379_16      0.226      0      0      0      0
1515379_17      0.225      0      0      0      0
1515379_18      0.223      0      0      0      0
1515379_19      0.222      0      0      0      0
1515379_20      0.220      0      0      0      0
1515379_21      0.219      0      0      0      0
1515379_22      0.217      0      0      0      0
1515379_23      0.216      0      0      0      0
1515379_24      0.214      0      0      0      0
1515379_25      0.213      0      0      0      0
1515379_26      0.211      0      0      0      0
1515379_27      0.210      0      0      0      0
1515379_28      0.208      0      0      0      0
1515379_29      0.207      0      0      0      0
1515379_30      0.205      0      0      0      0
1515379_31      0.204      0      0      0      0
1515379_32      0.203      0      0      0      0
1515379_33      0.201      0      0      0      0
1515379_34      0.200      0      0      0      0
1515379_35      0.198      0      0      0      0
1515379_36      0.197      0      0      0      0
1515529_0      0.253      0      0      0      0
1515531_0      0.286      0      0      0      0
1515531_1      0.285      0      0      0      0
1515531_2      0.283      0      0      0      0
1515531_3      0.282      0      0      0      0
1515531_4      0.280      0      0      0      0
1515531_5      0.279      0      0      0      0
1515531_6      0.278      0      0      0      0
1515531_7      0.276      0      0      0      0
1515531_8      0.275      0      0      0      0
1515531_9      0.273      0      0      0      0
1515531_10      0.272      0      0      0      0
1515531_11      0.270      0      0      0      0
1515531_12      0.269      0      0      0      0
1515531_13      0.267      0      0      0      0
1515531_14      0.266      0      0      0      0
1515531_15      0.265      0      0      0      0
1515531_16      0.263      0      0      0      0
1515531_17      0.262      0      0      0      0
1515531_18      0.260      0      0      0      0
1515531_19      0.259      0      0      0      0
1515531_20      0.257      0      0      0      0
1515531_21      0.256      0      0      0      0
1515533_0      0.296      0      0      0      0
1515533_1      0.295      0      0      0      0
1515533_2      0.293      0      0      0      0
1515533_3      0.292      0      0      0      0
1515533_4      0.291      0      0      0      0
1515533_5      0.289      0      0      0      0
1515375_0      0.563      0      0      0      0
1515375_1      0.498      0      0      0      0
1515375_2      0.432      0      0      0      0
1515375_3      0.367      0      0      0      0
1515371_0      0.634      0      0      0      0
1516477_0      0.706      0      0      0      0
1516477_1      0.704      0      0      0      0
1516477_2      0.703      0      0      0      0
1516477_3      0.701      0      0      0      0
1516477_4      0.700      0      0      0      0
1516477_5      0.698      0      0      0      0
1516477_6      0.697      0      0      0      0
1516477_7      0.695      0      0      0      0
1516477_8      0.694      0      0      0      0
1516477_9      0.693      0      0      0      0
1516477_10      0.691      0      0      0      0
1516477_11      0.690      0      0      0      0
1516477_12      0.688      0      0      0      0
1516477_13      0.687      0      0      0      0
1516477_14      0.685      0      0      0      0
1516477_15      0.684      0      0      0      0
1516477_16      0.682      0      0      0      0
1516477_17      0.681      0      0      0      0
1516477_18      0.679      0      0      0      0
1516477_19      0.678      0      0      0      0
1516477_20      0.676      0      0      0      0
1516477_21      0.675      0      0      0      0
1516477_22      0.673      0      0      0      0
1516477_23      0.672      0      0      0      0
1516477_24      0.670      0      0      0      0
1516477_25      0.669      0      0      0      0
1516477_26      0.668      0      0      0      0
1516477_27      0.666      0      0      0      0
1516477_28      0.665      0      0      0      0
1516477_29      0.663      0      0      0      0
1516477_30      0.662      0      0      0      0
1516477_31      0.660      0      0      0      0
1516477_32      0.659      0      0      0      0
1516477_33      0.657      0      0      0      0
1516477_34      0.656      0      0      0      0
1516477_35      0.654      0      0      0      0
1516477_36      0.653      0      0      0      0
1516477_37      0.651      0      0      0      0
1516477_38      0.650      0      0      0      0
1516477_39      0.648      0      0      0      0
1516477_40      0.647      0      0      0      0
1516477_41      0.645      0      0      0      0
1516477_42      0.644      0      0      0      0
1516477_43      0.643      0      0      0      0
1516477_44      0.641      0      0      0      0
1516477_45      0.640      0      0      0      0
1516477_46      0.638      0      0      0      0
1516477_47      0.637      0      0      0      0
1516477_48      0.635      0      0      0      0
1516477_49      0.634      0      0      0      0
1516475_0      0.710      0      0      0      0
1516475_1      0.709      0      0      0      0
1515373_0      0.744      0      0      0      0
1515373_1      0.743      0      0      0      0
1515373_2      0.741      0      0      0      0
1515373_3      0.740      0      0      0      0
1515373_4      0.738      0      0      0      0
1515373_5      0.737      0      0      0      0
1515373_6      0.735      0      0      0      0
1515373_7      0.734      0      0      0      0
1515373_8      0.732      0      0      0      0
1515373_9      0.731      0      0      0      0
1515373_10      0.729      0      0      0      0
1515373_11      0.728      0      0      0      0
1515373_12      0.726      0      0      0      0
1515373_13      0.725      0      0      0      0
1515373_14      0.723      0      0      0      0
1515373_15      0.722      0      0      0      0
1515373_16      0.720      0      0      0      0
1515373_17      0.719      0      0      0      0
1515373_18      0.717      0      0      0      0
1515373_19      0.716      0      0      0      0
1515373_20      0.714      0      0      0      0
1515373_21      0.713      0      0      0      0
1515369_0      0.747      0      0      0      0
1515367_0      0.771      0      0      0      0
1515367_1      0.770      0      0      0      0
1515367_2      0.768      0      0      0      0
1515367_3      0.767      0      0      0      0
1515367_4      0.765      0      0      0      0
1515367_5      0.764      0      0      0      0
1515367_6      0.762      0      0      0      0
1515367_7      0.761      0      0      0      0
1515367_8      0.759      0      0      0      0
1515367_9      0.758      0      0      0      0
1515367_10      0.756      0      0      0      0
1515367_11      0.755      0      0      0      0
1515367_12      0.753      0      0      0      0
1515367_13      0.752      0      0      0      0
1515367_14      0.750      0      0      0      0
1515367_15      0.749      0      0      0      0
1515367_16      0.747      0      0      0      0
1513391_0      1.751      0      0      0      0
1513391_1      1.729      0      0      0      0
1513391_2      1.707      0      0      0      0
1513391_3      1.684      0      0      0      0
1513391_4      1.662      0      0      0      0
1513391_5      1.640      0      0      0      0
1513391_6      1.618      0      0      0      0
1513391_7      1.595      0      0      0      0
1513391_8      1.573      0      0      0      0
1513391_9      1.551      0      0      0      0
1513391_10      1.529      0      0      0      0
1513391_11      1.506      0      0      0      0
1513391_12      1.484      0      0      0      0
1513391_13      1.462      0      0      0      0
1513391_14      1.440      0      0      0      0
1513391_15      1.418      0      0      0      0
1513391_16      1.395      0      0      0      0
1513391_17      1.373      0      0      0      0
1513391_18      1.351      0      0      0      0
1513391_19      1.329      0      0      0      0
1513391_20      1.306      0      0      0      0
1513391_21      1.284      0      0      0      0
1513391_22      1.262      0      0      0      0
1513391_23      1.240      0      0      0      0
1513391_24      1.217      0      0      0      0
1513391_25      1.195      0      0      0      0
1513391_26      1.173      0      0      0      0
1513391_27      1.151      0      0      0      0
1513391_28      1.129      0      0      0      0
1513391_29      1.106      0      0      0      0
1513391_30      1.084      0      0      0      0
1513391_31      1.062      0      0      0      0
1513391_32      1.040      0      0      0      0
1513391_33      1.017      0      0      0      0
1513391_34      0.995      0      0      0      0
1513391_35      0.973      0      0      0      0
1513391_36      0.951      0      0      0      0
1513391_37      0.928      0      0      0      0
1513391_38      0.906      0      0      0      0
1513391_39      0.884      0      0      0      0
1513391_40      0.862      0      0      0      0
1513391_41      0.840      0      0      0      0
1513391_42      0.817      0      0      0      0
1513391_43      0.795      0      0      0      0
1513385_0      1.825      0      0      0      0
1513385_1      1.824      0      0      0      0
1513385_2      1.822      0      0      0      0
1513385_3      1.821      0      0      0      0
1513385_4      1.819      0      0      0      0
1513385_5      1.818      0      0      0      0
1513385_6      1.817      0      0      0      0
1513385_7      1.815      0      0      0      0
1513385_8      1.814      0      0      0      0
1513385_9      1.812      0      0      0      0
1513385_10      1.811      0      0      0      0
1513385_11      1.809      0      0      0      0
1513385_12      1.808      0      0      0      0
1513385_13      1.806      0      0      0      0
1513385_14      1.805      0      0      0      0
1513385_15      1.803      0      0      0      0
1513385_16      1.802      0      0      0      0
1513385_17      1.800      0      0      0      0
1513385_18      1.799      0      0      0      0
1513385_19      1.797      0      0      0      0
1513385_20      1.796      0      0      0      0
1513385_21      1.794      0      0      0      0
1513385_22      1.793      0      0      0      0
1513385_23      1.791      0      0      0      0
1513385_24      1.790      0      0      0      0
1513385_25      1.788      0      0      0      0
1513385_26      1.787      0      0      0      0
1513385_27      1.785      0      0      0      0
1513385_28      1.784      0      0      0      0
1513385_29      1.782      0      0      0      0
1513385_30      1.781      0      0      0      0
1513385_31      1.779      0      0      0      0
1513385_32      1.778      0      0      0      0
1513385_33      1.776      0      0      0      0
1513385_34      1.775      0      0      0      0
1513377_0      1.839      0      0      0      0
1513377_1      1.837      0      0      0      0
1513377_2      1.836      0      0      0      0
1513377_3      1.834      0      0      0      0
1513377_4      1.833      0      0      0      0
1513377_5      1.831      0      0      0      0
1513377_6      1.830      0      0      0      0
1513377_7      1.828      0      0      0      0
1513431_0      2.590      0      0      0      0
1513375_0      2.473      0      0      0      0
1513375_1      2.459      0      0      0      0
1513375_2      2.444      0      0      0      0
1513375_3      2.430      0      0      0      0
1513375_4      2.415      0      0      0      0
1513375_5      2.401      0      0      0      0
1513375_6      2.387      0      0      0      0
1513375_7      2.372      0      0      0      0
1513375_8      2.358      0      0      0      0
1513375_9      2.344      0      0      0      0
1513375_10      2.329      0      0      0      0
1513375_11      2.315      0      0      0      0
1513375_12      2.300      0      0      0      0
1513375_13      2.286      0      0      0      0
1513375_14      2.272      0      0      0      0
1513375_15      2.257      0      0      0      0
1513375_16      2.243      0      0      0      0
1513375_17      2.229      0      0      0      0
1513375_18      2.214      0      0      0      0
1513375_19      2.200      0      0      0      0
1513375_20      2.185      0      0      0      0
1513375_21      2.171      0      0      0      0
1513375_22      2.157      0      0      0      0
1513375_23      2.142      0      0      0      0
1513375_24      2.128      0      0      0      0
1513375_25      2.113      0      0      0      0
1513375_26      2.099      0      0      0      0
1513375_27      2.085      0      0      0      0
1513375_28      2.070      0      0      0      0
1513375_29      2.056      0      0      0      0
1513375_30      2.042      0      0      0      0
1513375_31      2.027      0      0      0      0
1513375_32      2.013      0      0      0      0
1513375_33      1.998      0      0      0      0
1513375_34      1.984      0      0      0      0
1513375_35      1.970      0      0      0      0
1513375_36      1.955      0      0      0      0
1513375_37      1.941      0      0      0      0
1513375_38      1.927      0      0      0      0
1513375_39      1.912      0      0      0      0
1513375_40      1.898      0      0      0      0
1513375_41      1.883      0      0      0      0
1513375_42      1.869      0      0      0      0
1513375_43      1.855      0      0      0      0
1513373_0      3.237      0      0      0      0
1513371_0      4.120      0      0      0      0
1513371_1      4.069      0      0      0      0
1513371_2      4.018      0      0      0      0
1513371_3      3.967      0      0      0      0
1513371_4      3.916      0      0      0      0
1513371_5      3.865      0      0      0      0
1513371_6      3.814      0      0      0      0
1513371_7      3.763      0      0      0      0
1513371_8      3.712      0      0      0      0
1513371_9      3.661      0      0      0      0
1513371_10      3.610      0      0      0      0
1513371_11      3.559      0      0      0      0
1513371_12      3.508      0      0      0      0
1513371_13      3.457      0      0      0      0
1513371_14      3.406      0      0      0      0
1513371_15      3.355      0      0      0      0
1513371_16      3.304      0      0      0      0
1513371_17      3.253      0      0      0      0
1513371_18      3.202      0      0      0      0
1513371_19      3.151      0      0      0      0
1513371_20      3.100      0      0      0      0
1513371_21      3.050      0      0      0      0
1513371_22      2.999      0      0      0      0
1513371_23      2.948      0      0      0      0
1513371_24      2.897      0      0      0      0
1513371_25      2.846      0      0      0      0
1513371_26      2.795      0      0      0      0
1513371_27      2.744      0      0      0      0
1513371_28      2.693      0      0      0      0
1513371_29      2.642      0      0      0      0
1513371_30      2.591      0      0      0      0
1513371_31      2.540      0      0      0      0
1513365_0      4.184      0      0      0      0
1513365_1      4.183      0      0      0      0
1513365_2      4.181      0      0      0      0
1513365_3      4.180      0      0      0      0
1513365_4      4.178      0      0      0      0
1513365_5      4.177      0      0      0      0
1513365_6      4.175      0      0      0      0
1513365_7      4.174      0      0      0      0
1513359_0      5.275      0      0      0      0
1513359_1      5.243      0      0      0      0
1513359_2      5.212      0      0      0      0
1513359_3      5.181      0      0      0      0
1513359_4      5.150      0      0      0      0
1513359_5      5.119      0      0      0      0
1513359_6      5.088      0      0      0      0
1513359_7      5.057      0      0      0      0
1513359_8      5.026      0      0      0      0
1513359_9      4.995      0      0      0      0
1513359_10      4.964      0      0      0      0
1513359_11      4.932      0      0      0      0
1513359_12      4.901      0      0      0      0
1513359_13      4.870      0      0      0      0
1513359_14      4.839      0      0      0      0
1513359_15      4.808      0      0      0      0
1513359_16      4.777      0      0      0      0
1513359_17      4.746      0      0      0      0
1513359_18      4.715      0      0      0      0
1513359_19      4.684      0      0      0      0
1513359_20      4.653      0      0      0      0
1513359_21      4.621      0      0      0      0
1513359_22      4.590      0      0      0      0
1513359_23      4.559      0      0      0      0
1513359_24      4.528      0      0      0      0
1513359_25      4.497      0      0      0      0
1513359_26      4.466      0      0      0      0
1513359_27      4.435      0      0      0      0
1513359_28      4.404      0      0      0      0
1513359_29      4.373      0      0      0      0
1513359_30      4.342      0      0      0      0
1513359_31      4.310      0      0      0      0
1513359_32      4.279      0      0      0      0
1513359_33      4.248      0      0      0      0
1513359_34      4.217      0      0      0      0
1513361_0      4.187      0      0      0      0
1512813_0      7.723      0      0      0      0
1512813_1      7.429      0      0      0      0
1512813_2      7.135      0      0      0      0
1512813_3      6.841      0      0      0      0
1512813_4      6.547      0      0      0      0
1512813_5      6.253      0      0      0      0
1512813_6      5.959      0      0      0      0
1512813_7      5.665      0      0      0      0
1512813_8      5.371      0      0      0      0
1512813_9      5.077      0      0      0      0
1512813_10      4.783      0      0      0      0
1512813_11      4.489      0      0      0      0
1513355_0      8.431      0      0      0      0
1513355_1      8.296      0      0      0      0
1513355_2      8.160      0      0      0      0
1513355_3      8.024      0      0      0      0
1513355_4      7.889      0      0      0      0
1513355_5      7.753      0      0      0      0
1513355_6      7.617      0      0      0      0
1513355_7      7.482      0      0      0      0
1513355_8      7.346      0      0      0      0
1513355_9      7.210      0      0      0      0
1513355_10      7.075      0      0      0      0
1513355_11      6.939      0      0      0      0
1513355_12      6.804      0      0      0      0
1513355_13      6.668      0      0      0      0
1513355_14      6.532      0      0      0      0
1513355_15      6.397      0      0      0      0
1513355_16      6.261      0      0      0      0
1513355_17      6.125      0      0      0      0
1513355_18      5.990      0      0      0      0
1513355_19      5.854      0      0      0      0
1513355_20      5.718      0      0      0      0
1513355_21      5.583      0      0      0      0
1513355_22      5.447      0      0      0      0
1512869_0      6.407      0      0      0      0
1512869_1      6.246      0      0      0      0
1512869_2      6.085      0      0      0      0
1512869_3      5.924      0      0      0      0
1512869_4      5.763      0      0      0      0
1512869_5      5.602      0      0      0      0
1512869_6      5.441      0      0      0      0
1512869_7      5.280      0      0      0      0
1512869_8      5.119      0      0      0      0
1512869_9      4.958      0      0      0      0
1512869_10      4.797      0      0      0      0
1512869_11      4.636      0      0      0      0
1512869_12      4.474      0      0      0      0
1512869_13      4.313      0      0      0      0
1512869_14      4.152      0      0      0      0
24607819_0      6.599      0      0      0      0
24607819_1      6.596      0      0      0      0
24607819_2      6.594      0      0      0      0
24607819_3      6.591      0      0      0      0
24607819_4      6.588      0      0      0      0
24607819_5      6.586      0      0      0      0
24607819_6      6.583      0      0      0      0
24607819_7      6.580      0      0      0      0
24607819_8      6.578      0      0      0      0
24607819_9      6.575      0      0      0      0
1512849_0      6.611      0      0      0      0
1512849_1      6.610      0      0      0      0
1512849_2      6.609      0      0      0      0
1512849_3      6.607      0      0      0      0
1512849_4      6.606      0      0      0      0
1512849_5      6.605      0      0      0      0
1512849_6      6.603      0      0      0      0
1512847_0      7.989      0      0      0      0
1512847_1      7.875      0      0      0      0
1512847_2      7.761      0      0      0      0
1512847_3      7.647      0      0      0      0
1512847_4      7.533      0      0      0      0
1512847_5      7.419      0      0      0      0
1512847_6      7.305      0      0      0      0
1512847_7      7.191      0      0      0      0
1512847_8      7.077      0      0      0      0
1512847_9      6.963      0      0      0      0
1512847_10      6.848      0      0      0      0
1512847_11      6.734      0      0      0      0
1512837_0      7.714      0      0      0      0
1512837_1      7.630      0      0      0      0
1512837_2      7.545      0      0      0      0
1512837_3      7.461      0      0      0      0
1512837_4      7.377      0      0      0      0
1512837_5      7.293      0      0      0      0
1512837_6      7.208      0      0      0      0
1512837_7      7.124      0      0      0      0
1512837_8      7.040      0      0      0      0
1512837_9      6.956      0      0      0      0
1512837_10      6.871      0      0      0      0
1512837_11      6.787      0      0      0      0
1512837_12      6.703      0      0      0      0
1512967_0      5.752      0      0      0      0
1512967_1      5.618      0      0      0      0
1512967_2      5.484      0      0      0      0