[TITLE]
;;Project Title/Notes
Lavaca_Sample

[OPTIONS]
;;Option             Value
FLOW_UNITS           CMS
INFILTRATION         HORTON
FLOW_ROUTING         DYNWAVE
LINK_OFFSETS         DEPTH
MIN_SLOPE            0
ALLOW_PONDING        NO
SKIP_STEADY_STATE    NO

START_DATE           01/01/2000
START_TIME           00:00:00
REPORT_START_DATE    01/01/2000
REPORT_START_TIME    00:00:00
END_DATE       05/31/2000
END_TIME       00:00:00
SWEEP_START          01/01
SWEEP_END            12/31
DRY_DAYS             5
REPORT_STEP          01:00:00
WET_STEP             00:15:00
DRY_STEP             01:00:00
ROUTING_STEP         0:01:00 

INERTIAL_DAMPING     PARTIAL
NORMAL_FLOW_LIMITED  BOTH
FORCE_MAIN_EQUATION  D-W
VARIABLE_STEP        0.75
LENGTHENING_STEP     0
MIN_SURFAREA         12.557
MAX_TRIALS           8
HEAD_TOLERANCE       0.005
SYS_FLOW_TOL         5
LAT_FLOW_TOL         5
MINIMUM_STEP         0.5
THREADS              1

[EVAPORATION]
;;Data Source    Parameters
;;-------------- ----------------
CONSTANT         0.0
DRY_ONLY         NO

[JUNCTIONS]
;;Name           Elevation  MaxDepth   InitDepth  SurDepth   Aponded   
;;-------------- ---------- ---------- ---------- ---------- ----------
1486040_0      38.601      0      0      0      0
1486040_1      38.600      0      0      0      0
1486040_2      38.598      0      0      0      0
1486040_3      38.597      0      0      0      0
1486040_4      38.596      0      0      0      0
1486040_5      38.594      0      0      0      0
1486040_6      38.593      0      0      0      0
1486040_7      38.591      0      0      0      0
1486040_8      38.590      0      0      0      0
1486040_9      38.588      0      0      0      0
1486040_10      38.587      0      0      0      0
1486040_11      38.585      0      0      0      0
1486040_12      38.584      0      0      0      0
1486040_13      38.583      0      0      0      0
1486040_14      38.581      0      0      0      0
1486040_15      38.580      0      0      0      0
1486040_16      38.578      0      0      0      0
1486040_17      38.577      0      0      0      0
1486040_18      38.575      0      0      0      0
1485346_0      40.323      0      0      0      0
1485346_1      40.168      0      0      0      0
1485346_2      40.012      0      0      0      0
1485346_3      39.857      0      0      0      0
1485346_4      39.701      0      0      0      0
1485346_5      39.546      0      0      0      0
1485346_6      39.390      0      0      0      0
1485346_7      39.234      0      0      0      0
1485346_8      39.079      0      0      0      0
1485346_9      38.923      0      0      0      0
1485346_10      38.768      0      0      0      0
1485320_0      38.626      0      0      0      0
1485320_1      38.625      0      0      0      0
1485320_2      38.623      0      0      0      0
1485320_3      38.622      0      0      0      0
1485320_4      38.620      0      0      0      0
1485320_5      38.619      0      0      0      0
1485320_6      38.618      0      0      0      0
1485320_7      38.616      0      0      0      0
1485320_8      38.615      0      0      0      0
1485320_9      38.613      0      0      0      0
1485320_10      38.612      0      0      0      0
1485320_11      38.610      0      0      0      0
1485320_12      38.609      0      0      0      0
1485320_13      38.607      0      0      0      0
1485320_14      38.606      0      0      0      0
1485320_15      38.604      0      0      0      0
1485278_0      45.665      0      0      0      0
1485278_1      45.197      0      0      0      0
1485278_2      44.730      0      0      0      0
1485278_3      44.263      0      0      0      0
1485278_4      43.796      0      0      0      0
1485278_5      43.328      0      0      0      0
1485278_6      42.861      0      0      0      0
1485278_7      42.394      0      0      0      0
1485278_8      41.927      0      0      0      0
1485278_9      41.459      0      0      0      0
1485278_10      40.992      0      0      0      0
1485278_11      40.525      0      0      0      0
1485278_12      40.057      0      0      0      0
1485278_13      39.590      0      0      0      0
1485278_14      39.123      0      0      0      0
1485280_0      39.364      0      0      0      0
1485280_1      39.348      0      0      0      0
1485280_2      39.331      0      0      0      0
1485280_3      39.315      0      0      0      0
1485280_4      39.299      0      0      0      0
1485280_5      39.282      0      0      0      0
1485280_6      39.266      0      0      0      0
1485280_7      39.250      0      0      0      0
1485280_8      39.233      0      0      0      0
1485280_9      39.217      0      0      0      0
1485280_10      39.201      0      0      0      0
1485280_11      39.184      0      0      0      0
1485280_12      39.168      0      0      0      0
1485280_13      39.151      0      0      0      0
1485280_14      39.135      0      0      0      0
1485280_15      39.119      0      0      0      0
1485280_16      39.102      0      0      0      0
1485280_17      39.086      0      0      0      0
1485280_18      39.070      0      0      0      0
1485280_19      39.053      0      0      0      0
1485280_20      39.037      0      0      0      0
1485280_21      39.021      0      0      0      0
1485280_22      39.004      0      0      0      0
1485280_23      38.988      0      0      0      0
1485280_24      38.972      0      0      0      0
1485280_25      38.955      0      0      0      0
1485280_26      38.939      0      0      0      0
1485280_27      38.922      0      0      0      0
1485280_28      38.906      0      0      0      0
1485280_29      38.890      0      0      0      0
1485280_30      38.873      0      0      0      0
1485280_31      38.857      0      0      0      0
1485280_32      38.841      0      0      0      0
1485280_33      38.824      0      0      0      0
1485280_34      38.808      0      0      0      0
1485280_35      38.792      0      0      0      0
1485280_36      38.775      0      0      0      0
1485280_37      38.759      0      0      0      0
1485280_38      38.743      0      0      0      0
1485280_39      38.726      0      0      0      0
1485280_40      38.710      0      0      0      0
1485280_41      38.693      0      0      0      0
1485280_42      38.677      0      0      0      0
1485280_43      38.661      0      0      0      0
1485280_44      38.644      0      0      0      0
1485100_0      49.135      0      0      0      0
1485100_1      48.622      0      0      0      0
1485100_2      48.110      0      0      0      0
1485100_3      47.597      0      0      0      0
1485100_4      47.084      0      0      0      0
1485100_5      46.571      0      0      0      0
1485100_6      46.059      0      0      0      0
1485100_7      45.546      0      0      0      0
1485100_8      45.033      0      0      0      0
1485100_9      44.520      0      0      0      0
1485100_10      44.008      0      0      0      0
1485100_11      43.495      0      0      0      0
1485100_12      42.982      0      0      0      0
1485100_13      42.469      0      0      0      0
1485100_14      41.957      0      0      0      0
1485100_15      41.444      0      0      0      0
1485100_16      40.931      0      0      0      0
1485100_17      40.418      0      0      0      0
1485100_18      39.906      0      0      0      0
1485098_0      42.289      0      0      0      0
1485098_1      42.127      0      0      0      0
1485098_2      41.966      0      0      0      0
1485098_3      41.805      0      0      0      0
1485098_4      41.643      0      0      0      0
1485098_5      41.482      0      0      0      0
1485098_6      41.321      0      0      0      0
1485098_7      41.159      0      0      0      0
1485098_8      40.998      0      0      0      0
1485098_9      40.837      0      0      0      0
1485098_10      40.675      0      0      0      0
1485098_11      40.514      0      0      0      0
1485098_12      40.352      0      0      0      0
1485098_13      40.191      0      0      0      0
1485098_14      40.030      0      0      0      0
1485098_15      39.868      0      0      0      0
1485098_16      39.707      0      0      0      0
1485098_17      39.546      0      0      0      0
1485984_0      44.325      0      0      0      0
1485984_1      44.236      0      0      0      0
1485984_2      44.147      0      0      0      0
1485984_3      44.058      0      0      0      0
1485984_4      43.969      0      0      0      0
1485984_5      43.879      0      0      0      0
1485984_6      43.790      0      0      0      0
1485984_7      43.701      0      0      0      0
1485984_8      43.612      0      0      0      0
1485984_9      43.523      0      0      0      0
1485984_10      43.434      0      0      0      0
1485984_11      43.345      0      0      0      0
1485984_12      43.256      0      0      0      0
1485984_13      43.167      0      0      0      0
1485984_14      43.078      0      0      0      0
1485984_15      42.989      0      0      0      0
1485984_16      42.900      0      0      0      0
1485984_17      42.811      0      0      0      0
1485984_18      42.722      0      0      0      0
1485984_19      42.633      0      0      0      0
1485984_20      42.544      0      0      0      0
1486026_0      51.049      0      0      0      0
1486026_1      50.972      0      0      0      0
1486026_2      50.895      0      0      0      0
1486026_3      50.818      0      0      0      0
1486026_4      50.741      0      0      0      0
1486026_5      50.664      0      0      0      0
1486026_6      50.587      0      0      0      0
1486026_7      50.511      0      0      0      0
1486026_8      50.434      0      0      0      0
1486026_9      50.357      0      0      0      0
1486026_10      50.280      0      0      0      0
1486026_11      50.203      0      0      0      0
1486026_12      50.126      0      0      0      0
1486026_13      50.049      0      0      0      0
1486026_14      49.972      0      0      0      0
1486026_15      49.895      0      0      0      0
1486026_16      49.818      0      0      0      0
1486026_17      49.741      0      0      0      0
1485014_0      51.535      0      0      0      0
1485014_1      51.455      0      0      0      0
1485014_2      51.375      0      0      0      0
1485014_3      51.294      0      0      0      0
1485014_4      51.214      0      0      0      0
1486138_0      52.369      0      0      0      0
1485214_0      47.469      0      0      0      0
1485214_1      47.069      0      0      0      0
1485214_2      46.670      0      0      0      0
1485212_0      46.773      0      0      0      0
1485212_1      46.490      0      0      0      0
1485198_0      52.321      0      0      0      0
1485198_1      51.888      0      0      0      0
1485198_2      51.454      0      0      0      0
1485198_3      51.021      0      0      0      0
1485198_4      50.587      0      0      0      0
1485198_5      50.154      0      0      0      0
1485198_6      49.720      0      0      0      0
1485198_7      49.287      0      0      0      0
1485198_8      48.853      0      0      0      0
1485198_9      48.420      0      0      0      0
1485198_10      47.986      0      0      0      0
1485198_11      47.553      0      0      0      0
1485162_0      58.565      0      0      0      0
1485162_1      58.372      0      0      0      0
1485162_2      58.179      0      0      0      0
1485162_3      57.986      0      0      0      0
1485162_4      57.793      0      0      0      0
1485162_5      57.600      0      0      0      0
1485162_6      57.407      0      0      0      0
1485162_7      57.213      0      0      0      0
1485162_8      57.020      0      0      0      0
1485162_9      56.827      0      0      0      0
1485162_10      56.634      0      0      0      0
1485162_11      56.441      0      0      0      0
1485162_12      56.248      0      0      0      0
1485162_13      56.055      0      0      0      0
1485162_14      55.862      0      0      0      0
1485162_15      55.669      0      0      0      0
1485162_16      55.476      0      0      0      0
1485162_17      55.283      0      0      0      0
1485162_18      55.090      0      0      0      0
1485162_19      54.897      0      0      0      0
1485162_20      54.704      0      0      0      0
1485162_21      54.511      0      0      0      0
1485162_22      54.318      0      0      0      0
1485162_23      54.125      0      0      0      0
1485162_24      53.932      0      0      0      0
1485162_25      53.739      0      0      0      0
1485162_26      53.546      0      0      0      0
1485162_27      53.352      0      0      0      0
1485162_28      53.159      0      0      0      0
1485162_29      52.966      0      0      0      0
1485108_0      60.191      0      0      0      0
1485108_1      59.834      0      0      0      0
1485108_2      59.477      0      0      0      0
1485108_3      59.120      0      0      0      0
1485080_0      69.548      0      0      0      0
1485080_1      69.227      0      0      0      0
1485080_2      68.906      0      0      0      0
1485080_3      68.585      0      0      0      0
1485080_4      68.264      0      0      0      0
1485080_5      67.943      0      0      0      0
1485080_6      67.622      0      0      0      0
1485080_7      67.301      0      0      0      0
1485080_8      66.980      0      0      0      0
1485080_9      66.659      0      0      0      0
1485080_10      66.338      0      0      0      0
1485080_11      66.017      0      0      0      0
1485080_12      65.696      0      0      0      0
1485080_13      65.375      0      0      0      0
1485080_14      65.054      0      0      0      0
1485080_15      64.733      0      0      0      0
1485080_16      64.412      0      0      0      0
1485080_17      64.091      0      0      0      0
1485080_18      63.770      0      0      0      0
1485080_19      63.449      0      0      0      0
1485080_20      63.128      0      0      0      0
1485080_21      62.807      0      0      0      0
1485080_22      62.486      0      0      0      0
1485080_23      62.165      0      0      0      0
1485080_24      61.844      0      0      0      0
1485080_25      61.523      0      0      0      0
1485080_26      61.202      0      0      0      0
1485080_27      60.881      0      0      0      0
1485052_0      70.383      0      0      0      0
1485052_1      70.264      0      0      0      0
1485052_2      70.144      0      0      0      0
1485052_3      70.025      0      0      0      0
1485048_0      70.986      0      0      0      0
1485048_1      70.940      0      0      0      0
1485048_2      70.895      0      0      0      0
1485048_3      70.850      0      0      0      0
1485048_4      70.805      0      0      0      0
1485048_5      70.759      0      0      0      0
1485048_6      70.714      0      0      0      0
1485048_7      70.669      0      0      0      0
1485048_8      70.624      0      0      0      0
1485048_9      70.578      0      0      0      0
630009477      38.603      0      0      0      0
630009282      38.628      0      0      0      0
630009265      39.381      0      0      0      0
630009209      42.454      0      0      0      0
630009466      44.415      0      0      0      0
630009210      49.660      0      0      0      0
630009474      51.130      0      0      0      0
630009179      51.619      0      0      0      0
630009504      53.119      0      0      0      0
630009264      46.160      0      0      0      0
630009241      47.103      0      0      0      0
630009239      52.771      0      0      0      0
630009228      58.760      0      0      0      0
630009213      60.551      0      0      0      0
630009203      69.878      0      0      0      0
630009194      70.530      0      0      0      0
630009192      71.034      0      0      0      0
630009242      47.979      0      0      0      0
630009288      40.488      0      0      0      0

[OUTFALLS]
;;Name           Elevation  Type       Stage Data       Gated    Route To        
;;-------------- ---------- ---------- ---------------- -------- ----------------
630009310      38.574     FIXED     3.0      NO

[CONDUITS]
;;Name           From Node        To Node          Length     Roughness  InOffset   OutOffset  InitFlow   MaxFlow   
;;-------------- ---------------- ---------------- ---------- ---------- ---------- ---------- ---------- ----------
59512      1486040_0      1486040_1      144.6      0.050      0      0      0      
59511      1486040_1      1486040_2      144.6      0.050      0      0      0      
59510      1486040_2      1486040_3      144.6      0.050      0      0      0      
59509      1486040_3      1486040_4      144.6      0.050      0      0      0      
59508      1486040_4      1486040_5      144.6      0.050      0      0      0      
59507      1486040_5      1486040_6      144.6      0.050      0      0      0      
59506      1486040_6      1486040_7      144.6      0.050      0      0      0      
59505      1486040_7      1486040_8      144.6      0.050      0      0      0      
59504      1486040_8      1486040_9      144.6      0.050      0      0      0      
59503      1486040_9      1486040_10      144.6      0.050      0      0      0      
59502      1486040_10      1486040_11      144.6      0.050      0      0      0      
59501      1486040_11      1486040_12      144.6      0.050      0      0      0      
59500      1486040_12      1486040_13      144.6      0.050      0      0      0      
59499      1486040_13      1486040_14      144.6      0.050      0      0      0      
59498      1486040_14      1486040_15      144.6      0.050      0      0      0      
59497      1486040_15      1486040_16      144.6      0.050      0      0      0      
59496      1486040_16      1486040_17      144.6      0.050      0      0      0      
59495      1486040_17      1486040_18      144.6      0.050      0      0      0      
59494      1485346_0      1485346_1      141.4      0.060      0      0      0      
59493      1485346_1      1485346_2      141.4      0.060      0      0      0      
59492      1485346_2      1485346_3      141.4      0.060      0      0      0      
59491      1485346_3      1485346_4      141.4      0.060      0      0      0      
59490      1485346_4      1485346_5      141.4      0.060      0      0      0      
59489      1485346_5      1485346_6      141.4      0.060      0      0      0      
59488      1485346_6      1485346_7      141.4      0.060      0      0      0      
59487      1485346_7      1485346_8      141.4      0.060      0      0      0      
59486      1485346_8      1485346_9      141.4      0.060      0      0      0      
59485      1485346_9      1485346_10      141.4      0.060      0      0      0      
59484      1485320_0      1485320_1      146.9      0.050      0      0      0      
59483      1485320_1      1485320_2      146.9      0.050      0      0      0      
59482      1485320_2      1485320_3      146.9      0.050      0      0      0      
59481      1485320_3      1485320_4      146.9      0.050      0      0      0      
59480      1485320_4      1485320_5      146.9      0.050      0      0      0      
59479      1485320_5      1485320_6      146.9      0.050      0      0      0      
59478      1485320_6      1485320_7      146.9      0.050      0      0      0      
59477      1485320_7      1485320_8      146.9      0.050      0      0      0      
59476      1485320_8      1485320_9      146.9      0.050      0      0      0      
59475      1485320_9      1485320_10      146.9      0.050      0      0      0      
59474      1485320_10      1485320_11      146.9      0.050      0      0      0      
59473      1485320_11      1485320_12      146.9      0.050      0      0      0      
59472      1485320_12      1485320_13      146.9      0.050      0      0      0      
59471      1485320_13      1485320_14      146.9      0.050      0      0      0      
59470      1485320_14      1485320_15      146.9      0.050      0      0      0      
59469      1485278_0      1485278_1      141.6      0.055      0      0      0      
59468      1485278_1      1485278_2      141.6      0.055      0      0      0      
59467      1485278_2      1485278_3      141.6      0.055      0      0      0      
59466      1485278_3      1485278_4      141.6      0.055      0      0      0      
59465      1485278_4      1485278_5      141.6      0.055      0      0      0      
59464      1485278_5      1485278_6      141.6      0.055      0      0      0      
59463      1485278_6      1485278_7      141.6      0.055      0      0      0      
59462      1485278_7      1485278_8      141.6      0.055      0      0      0      
59461      1485278_8      1485278_9      141.6      0.055      0      0      0      
59460      1485278_9      1485278_10      141.6      0.055      0      0      0      
59459      1485278_10      1485278_11      141.6      0.055      0      0      0      
59458      1485278_11      1485278_12      141.6      0.055      0      0      0      
59457      1485278_12      1485278_13      141.6      0.055      0      0      0      
59456      1485278_13      1485278_14      141.6      0.055      0      0      0      
59455      1485280_0      1485280_1      148.7      0.050      0      0      0      
59454      1485280_1      1485280_2      148.7      0.050      0      0      0      
59453      1485280_2      1485280_3      148.7      0.050      0      0      0      
59452      1485280_3      1485280_4      148.7      0.050      0      0      0      
59451      1485280_4      1485280_5      148.7      0.050      0      0      0      
59450      1485280_5      1485280_6      148.7      0.050      0      0      0      
59449      1485280_6      1485280_7      148.7      0.050      0      0      0      
59448      1485280_7      1485280_8      148.7      0.050      0      0      0      
59447      1485280_8      1485280_9      148.7      0.050      0      0      0      
59446      1485280_9      1485280_10      148.7      0.050      0      0      0      
59445      1485280_10      1485280_11      148.7      0.050      0      0      0      
59444      1485280_11      1485280_12      148.7      0.050      0      0      0      
59443      1485280_12      1485280_13      148.7      0.050      0      0      0      
59442      1485280_13      1485280_14      148.7      0.050      0      0      0      
59441      1485280_14      1485280_15      148.7      0.050      0      0      0      
59440      1485280_15      1485280_16      148.7      0.050      0      0      0      
59439      1485280_16      1485280_17      148.7      0.050      0      0      0      
59438      1485280_17      1485280_18      148.7      0.050      0      0      0      
59437      1485280_18      1485280_19      148.7      0.050      0      0      0      
59436      1485280_19      1485280_20      148.7      0.050      0      0      0      
59435      1485280_20      1485280_21      148.7      0.050      0      0      0      
59434      1485280_21      1485280_22      148.7      0.050      0      0      0      
59433      1485280_22      1485280_23      148.7      0.050      0      0      0      
59432      1485280_23      1485280_24      148.7      0.050      0      0      0      
59431      1485280_24      1485280_25      148.7      0.050      0      0      0      
59430      1485280_25      1485280_26      148.7      0.050      0      0      0      
59429      1485280_26      1485280_27      148.7      0.050      0      0      0      
59428      1485280_27      1485280_28      148.7      0.050      0      0      0      
59427      1485280_28      1485280_29      148.7      0.050      0      0      0      
59426      1485280_29      1485280_30      148.7      0.050      0      0      0      
59425      1485280_30      1485280_31      148.7      0.050      0      0      0      
59424      1485280_31      1485280_32      148.7      0.050      0      0      0      
59423      1485280_32      1485280_33      148.7      0.050      0      0      0      
59422      1485280_33      1485280_34      148.7      0.050      0      0      0      
59421      1485280_34      1485280_35      148.7      0.050      0      0      0      
59420      1485280_35      1485280_36      148.7      0.050      0      0      0      
59419      1485280_36      1485280_37      148.7      0.050      0      0      0      
59418      1485280_37      1485280_38      148.7      0.050      0      0      0      
59417      1485280_38      1485280_39      148.7      0.050      0      0      0      
59416      1485280_39      1485280_40      148.7      0.050      0      0      0      
59415      1485280_40      1485280_41      148.7      0.050      0      0      0      
59414      1485280_41      1485280_42      148.7      0.050      0      0      0      
59413      1485280_42      1485280_43      148.7      0.050      0      0      0      
59412      1485280_43      1485280_44      148.7      0.050      0      0      0      
59411      1485100_0      1485100_1      146.5      0.060      0      0      0      
59410      1485100_1      1485100_2      146.5      0.060      0      0      0      
59409      1485100_2      1485100_3      146.5      0.060      0      0      0      
59408      1485100_3      1485100_4      146.5      0.060      0      0      0      
59407      1485100_4      1485100_5      146.5      0.060      0      0      0      
59406      1485100_5      1485100_6      146.5      0.060      0      0      0      
59405      1485100_6      1485100_7      146.5      0.060      0      0      0      
59404      1485100_7      1485100_8      146.5      0.060      0      0      0      
59403      1485100_8      1485100_9      146.5      0.060      0      0      0      
59402      1485100_9      1485100_10      146.5      0.060      0      0      0      
59401      1485100_10      1485100_11      146.5      0.060      0      0      0      
59400      1485100_11      1485100_12      146.5      0.060      0      0      0      
59399      1485100_12      1485100_13      146.5      0.060      0      0      0      
59398      1485100_13      1485100_14      146.5      0.060      0      0      0      
59397      1485100_14      1485100_15      146.5      0.060      0      0      0      
59396      1485100_15      1485100_16      146.5      0.060      0      0      0      
59395      1485100_16      1485100_17      146.5      0.060      0      0      0      
59394      1485100_17      1485100_18      146.5      0.060      0      0      0      
59393      1485098_0      1485098_1      146.7      0.050      0      0      0      
59392      1485098_1      1485098_2      146.7      0.050      0      0      0      
59391      1485098_2      1485098_3      146.7      0.050      0      0      0      
59390      1485098_3      1485098_4      146.7      0.050      0      0      0      
59389      1485098_4      1485098_5      146.7      0.050      0      0      0      
59388      1485098_5      1485098_6      146.7      0.050      0      0      0      
59387      1485098_6      1485098_7      146.7      0.050      0      0      0      
59386      1485098_7      1485098_8      146.7      0.050      0      0      0      
59385      1485098_8      1485098_9      146.7      0.050      0      0      0      
59384      1485098_9      1485098_10      146.7      0.050      0      0      0      
59383      1485098_10      1485098_11      146.7      0.050      0      0      0      
59382      1485098_11      1485098_12      146.7      0.050      0      0      0      
59381      1485098_12      1485098_13      146.7      0.050      0      0      0      
59380      1485098_13      1485098_14      146.7      0.050      0      0      0      
59379      1485098_14      1485098_15      146.7      0.050      0      0      0      
59378      1485098_15      1485098_16      146.7      0.050      0      0      0      
59377      1485098_16      1485098_17      146.7      0.050      0      0      0      
59376      1485984_0      1485984_1      148.4      0.050      0      0      0      
59375      1485984_1      1485984_2      148.4      0.050      0      0      0      
59374      1485984_2      1485984_3      148.4      0.050      0      0      0      
59373      1485984_3      1485984_4      148.4      0.050      0      0      0      
59372      1485984_4      1485984_5      148.4      0.050      0      0      0      
59371      1485984_5      1485984_6      148.4      0.050      0      0      0      
59370      1485984_6      1485984_7      148.4      0.050      0      0      0      
59369      1485984_7      1485984_8      148.4      0.050      0      0      0      
59368      1485984_8      1485984_9      148.4      0.050      0      0      0      
59367      1485984_9      1485984_10      148.4      0.050      0      0      0      
59366      1485984_10      1485984_11      148.4      0.050      0      0      0      
59365      1485984_11      1485984_12      148.4      0.050      0      0      0      
59364      1485984_12      1485984_13      148.4      0.050      0      0      0      
59363      1485984_13      1485984_14      148.4      0.050      0      0      0      
59362      1485984_14      1485984_15      148.4      0.050      0      0      0      
59361      1485984_15      1485984_16      148.4      0.050      0      0      0      
59360      1485984_16      1485984_17      148.4      0.050      0      0      0      