[TITLE]
;;Project Title/Notes
;; A -- reordered extran1_rect_open_final
;; A01 -- reduced to a single line with single inflow
;; A02 -- all rect open
;; A03 -- renaming conduits and junctions for ordering
;; A04 -- reducing number of conduits
Example 1 of Extran Manual

[OPTIONS]
;;Option             Value
FLOW_UNITS           CFS
INFILTRATION         HORTON
FLOW_ROUTING         DYNWAVE
LINK_OFFSETS         DEPTH
MIN_SLOPE            0
ALLOW_PONDING        NO
SKIP_STEADY_STATE    NO

START_DATE           01/01/2002
START_TIME           00:00:00
REPORT_START_DATE    01/01/2002
REPORT_START_TIME    00:00:00
END_DATE             01/01/2002
END_TIME             08:00:00
SWEEP_START          01/01
SWEEP_END            12/31
DRY_DAYS             0
REPORT_STEP          00:01:00
WET_STEP             00:15:00
DRY_STEP             01:00:00
ROUTING_STEP         0:00:20 

INERTIAL_DAMPING     NONE
NORMAL_FLOW_LIMITED  FROUDE
FORCE_MAIN_EQUATION  D-W
VARIABLE_STEP        0.00
LENGTHENING_STEP     0
MIN_SURFAREA         0
MAX_TRIALS           0
HEAD_TOLERANCE       0
SYS_FLOW_TOL         5
LAT_FLOW_TOL         5
MINIMUM_STEP         0.5
THREADS              1


[EVAPORATION]
;;Data Source    Parameters
;;-------------- ----------------
CONSTANT         0.0
DRY_ONLY         NO

[JUNCTIONS]
;;Name           Elevation  MaxDepth   InitDepth  SurDepth   Aponded   
;;-------------- ---------- ---------- ---------- ---------- ----------     
;81009            128.2      8.8        0          0          0         
;81309            117.5      12.5       0          0          0          
;15009            111.5      13.5       0          0          0         

jA1_80408            124.6      13.4       0          0          0   
    ;jB1_80608            118.3      16.7       0          0          0  
jC1_82309            112.3      42.7       0          0          0          
    ;jD1_16109            102.8      22.2       0          0          0     
jE1_16009            102        18         0          0          0 
    ;jF1_10309            101.6      9.4        0          0          0  

[OUTFALLS]
;;Name           Elevation  Type       Stage Data       Gated    Route To        
;;-------------- ---------- ---------- ---------------- -------- ----------------
jZ1_10208            89.9       FIXED        91.0                YES                       

[CONDUITS]
;;Name           From Node        To Node          Length     Roughness  InOffset   OutOffset  InitFlow   MaxFlow   
;;-------------- ---------------- ---------------- ---------- ---------- ---------- ---------- ---------- ----------    
;8100             81009            81309            5100       0.015      0          0          0          0         
;8130             81309            15009            3500       0.015      0          0          0          0         
;1570             15009            16009            5000       0.0154     0          0          0          0     

    ;A0_8040             jA1_80408            jB1_80608            1800       0.015      0          0          0          0          
A0_8040             jA1_80408            jC1_82309            3875       0.015      0          0          0          0    
    ;B0_8060             jB1_80608            jC1_82309            2075       0.015      0          2.2        0          0    

    ;C0_1602             jC1_82309            jD1_16109            5000       0.034      0          0          0          0  
C0_1602             jC1_82309            jE1_16009            5500       0.034      0          0          0          0 
    ;D0_1600             jD1_16109            jE1_16009            500        0.015      0          0          0          0  

    ;E0_1630             jE1_16009            jF1_10309            300        0.015      0          0          0          0   
E0_1630             jE1_16009            jZ1_10208           4800        0.015      0          0          0          0   
    ;F0_1030             jF1_10309            jZ1_10208            4500       0.016      0          0          0          0  

[XSECTIONS]
;;Link           Shape        Geom1            Geom2      Geom3      Geom4      Barrels    Culvert   
;;-------------- ------------ ---------------- ---------- ---------- ---------- ---------- ----------
;8100             RECT_OPEN    100                4.5          0          0          1                    
;8130             RECT_OPEN    100                4.5          0          0          1    
;1570             RECT_OPEN    100                5.5          0          0          1     

A0_8040             RECT_OPEN    100                4          0          0          1                    
    ;B0_8060             RECT_OPEN    100                4          0          0          1                    
C0_1602             RECT_OPEN    100                5          0          0          1      
                        
    ;D0_1600             RECT_OPEN    100                6          0          0          1                    
    ;1630             TRAPEZOIDAL  9.0                1          3          3          1    
E0_1630             RECT_OPEN    100                6          0          0          1                   
    ;1030             TRAPEZOIDAL  9.0                1          3          3          1   
    ;F0_1030             RECT_OPEN    100                6          0          0          1               

[INFLOWS]
;;Node           Constituent      Time Series      Type     Mfactor  Sfactor  Baseline Pattern
;;-------------- ---------------- ---------------- -------- -------- -------- -------- --------
jA1_80408            FLOW             80408            FLOW     1.0      1.0              
;;81009            FLOW             81009            FLOW     1.0      1.0              
;;82309            FLOW             82309            FLOW     1.0      1.0              

[TIMESERIES]
;;Name           Date       Time       Value     
;;-------------- ---------- ---------- ----------
;82309                       0          0         
;82309                       1.25       0        
;82309                       1.5        20
;82309                       3.5        20       
;82309                       3.75       0         
;82309                       12.0       0         
;
80408                       0          0         
80408                       0.75       25        
80408                       3.0        25        
80408                       3.25       0         
80408                       12         0        
;
;81009                       0          0         
;81009                       0.25       0
;81009                       1.75       0    
;81009                       2.0        30 
;81009                       4.0        30      
;81009                       4.25       0        
;81009                       12         0   

[REPORT]
;;Reporting Options
INPUT      NO
CONTROLS   NO
SUBCATCHMENTS ALL
NODES ALL
LINKS ALL

[TAGS]

[MAP]
DIMENSIONS 0.000 0.000 10000.000 10000.000
Units      None

[COORDINATES]
;;Node           X-Coord            Y-Coord           
;;-------------- ------------------ ------------------
80408            10115.790          7536.840          
80608            7463.160           7536.840          
81009            9989.470           2421.050          
81309            7568.420           2421.050          
82309            4957.890           7536.840          
10309            389.470            2421.050          
15009            4978.950           2421.050          
16009            2494.740           2421.050          
16109            2494.740           7536.840          
10208            -578.950           4947.370          

[VERTICES]
;;Link           X-Coord            Y-Coord           
;;-------------- ------------------ ------------------

[LABELS]
;;X-Coord          Y-Coord            Label           
2431.580           1052.630           "EXAMPLE 1 OF EXTRAN MANUAL" "" "Arial" 12 1 1
9821.050           7157.890           "Inflow" "" "Arial" 10 0 0
4659.810           7199.370           "Inflow" "" "Arial" 10 0 0
9694.740           2084.210           "Inflow" "" "Arial" 10 0 0

