[TITLE]
Scenario Run :  BASE
Madison Wisconsin Rain Gardens - Average Values
2011 Green Infrastructure Effectiveness R&D Project
2011-09-13
Matthew D. McCutcheon
CDM
8800 Lyra Drive
Suite 500
Columbus, OH 43240
E.T. values from http://www.soils.wisc.edu/asig/rails/wimnext-rails/et/get_et_series

[OPTIONS]
;Option and Files Scenario Set: BASE, Base Simulation Options
FLOW_UNITS	CFS
INFILTRATION	HORTON
FLOW_ROUTING	DYNWAVE
ALLOW_PONDING	NO
DRY_DAYS	0.000000
SKIP_STEADY_STATE 	NO
IGNORE_RAINFALL	NO
IGNORE_SNOWMELT	NO
IGNORE_GROUNDWATER	NO
IGNORE_QUALITY	NO
FORCE_MAIN_EQUATION	H-W
LINK_OFFSETS	DEPTH
MIN_SLOPE	0.000000
START_DATE	05/01/2004
START_TIME	00:00:00
END_DATE	05/11/2004
END_TIME	23:59:00
REPORT_START_DATE	05/01/2004
REPORT_START_TIME	00:00:00
SWEEP_START	01/01
SWEEP_END	12/31
WET_STEP	00:01:00
DRY_STEP	00:01:00
ROUTING_STEP	5
REPORT_STEP	00:05:00
INERTIAL_DAMPING	NONE
VARIABLE_STEP	0.000000
MINIMUM_STEP	0.5
LENGTHENING_STEP	0
MIN_SURFAREA	0.000000
NORMAL_FLOW_LIMITED	BOTH

[FILES]

[RAINGAGES]
RG_CLAY	VOLUME	1.000000	1.000000	TIMESERIES	RAIN1		
RG_SAND	VOLUME	1.000000	1.000000	TIMESERIES	RAIN1		

[HYDROGRAPHS]

[EVAPORATION]
CONSTANT	0.250000
DRY_ONLY	NO

[TEMPERATURE]

[ADJUSTMENTS]

[SUBCATCHMENTS]
PRARIE_CLAY_LID	RG_CLAY	PRARIE_CLAY_OUTLET	0.009252	0.000000	20.074860	0.000000	0.000000
PRARIE_CLAY_ROOF	RG_CLAY	PRARIE_CLAY_LID	0.011777	100.000000	22.649503	0.010000	0.000000
PRARIE_SAND_LID	RG_SAND	PRARIE_SAND_OUTLET	0.002296	0.000000	10.000000	0.000000	0.000000
PRARIE_SAND_ROOF	RG_SAND	PRARIE_SAND_LID	0.011800	100.000000	39.242834	15.000000	0.000000
TURF_CLAY_LID	RG_CLAY	TURF_CLAY_OUTLET	0.008127	0.000000	18.814888	0.000000	0.000000
TURF_CLAY_ROOF	RG_CLAY	TURF_CLAY_LID	0.011777	100.000000	22.649503	0.010000	0.000000
TURF_SAND_LID	RG_SAND	TURF_SAND_OUTLET	0.002296	0.000000	10.000000	0.000000	0.000000
TURF_SAND_ROOF	RG_SAND	TURF_SAND_LID	0.035353	100.000000	39.242834	15.000000	0.000000

[SUBAREAS]
PRARIE_CLAY_LID	0.010000	0.100000	0.050000	0.050000	25.000000	OUTLET
PRARIE_CLAY_ROOF	0.010000	0.100000	0.010000	0.050000	0.000000	OUTLET
PRARIE_SAND_LID	0.010000	0.100000	0.050000	0.100000	0.000000	OUTLET
PRARIE_SAND_ROOF	0.010000	0.100000	0.010000	0.050000	0.000000	OUTLET
TURF_CLAY_LID	0.010000	0.100000	0.050000	0.050000	25.000000	OUTLET
TURF_CLAY_ROOF	0.010000	0.100000	0.010000	0.000000	0.000000	OUTLET
TURF_SAND_LID	0.010000	0.100000	0.050000	0.100000	0.000000	OUTLET
TURF_SAND_ROOF	0.010000	0.100000	0.010000	0.050000	0.000000	OUTLET

[INFILTRATION]
PRARIE_CLAY_LID	3.000000	0.100000	0.050000	0.001000	0.000000
PRARIE_CLAY_ROOF	3.000000	0.100000	0.050000	0.001000	0.000000
PRARIE_SAND_LID	3.000000	0.100000	0.050000	0.001000	0.000000
PRARIE_SAND_ROOF	3.000000	0.100000	0.050000	0.001000	0.000000
TURF_CLAY_LID	3.000000	0.100000	0.050000	0.001000	0.000000
TURF_CLAY_ROOF	3.000000	0.100000	0.050000	0.001000	0.000000
TURF_SAND_LID	3.000000	0.100000	0.050000	0.001000	0.000000
TURF_SAND_ROOF	3.000000	0.100000	0.050000	0.001000	0.000000

[AQUIFERS]

[GROUNDWATER]

[GWF]

[SNOWPACKS]

[LID_CONTROLS]
TURF_CLAY	BC
TURF_CLAY	SURFACE	6.000000	0.990000	0.000000	0.000000	5.000000
TURF_CLAY	SOIL	5.000000	0.590000	0.410000	0.140000	0.780000	10.000000	3.500000
TURF_CLAY	STORAGE	48.000000	1.439000	0.780000	0.000000
TURF_CLAY	DRAIN	0.000000	0.500000	0.000000	6.000000

PRARIE_CLAY	BC
PRARIE_CLAY	SURFACE	6.000000	0.990000	0.000000	0.000000	5.000000
PRARIE_CLAY	SOIL	5.000000	0.430000	0.250000	0.190000	0.780000	10.000000	3.500000
PRARIE_CLAY	STORAGE	48.000000	0.754000	0.780000	0.000000
PRARIE_CLAY	DRAIN	0.000000	0.500000	0.000000	6.000000

TURF_SAND	BC
TURF_SAND	SURFACE	6.000000	0.990000	0.000000	0.000000	5.000000
TURF_SAND	SOIL	5.000000	0.450000	0.160000	0.110000	3.550000	10.000000	3.500000
TURF_SAND	STORAGE	48.000000	0.818000	3.550000	0.000000
TURF_SAND	DRAIN	0.000000	0.500000	0.000000	6.000000

PRARIE_SAND	BC
PRARIE_SAND	SURFACE	6.000000	0.990000	0.000000	0.000000	5.000000
PRARIE_SAND	SOIL	5.000000	0.450000	0.340000	0.240000	3.550000	10.000000	3.500000
PRARIE_SAND	STORAGE	1.000000	0.818000	3.550000	0.000000
PRARIE_SAND	DRAIN	0.000000	0.500000	0.000000	6.000000


[LID_USAGE]
TURF_SAND_LID	TURF_SAND	1	99.990000	0.000000	0.000000	0.000000	0
PRARIE_SAND_LID	PRARIE_SAND	1	99.980000	0.000000	0.000000	0.000000	0
TURF_CLAY_LID	TURF_CLAY	1	353.990000	18.814888	0.000000	0.000000	0
PRARIE_CLAY_LID	PRARIE_CLAY	1	402.990000	20.074860	0.000000	0.000000	0

[JUNCTIONS]

[OUTFALLS]
PRARIE_CLAY_OUTLET	0.000000	FREE	NO
PRARIE_SAND_OUTLET	0.000000	FREE	NO
TURF_CLAY_OUTLET	0.000000	FREE	NO
TURF_SAND_OUTLET	0.000000	FREE	NO

[DIVIDERS]

[STORAGE]

[CONDUITS]

[PUMPS]

[ORIFICES]

[WEIRS]

[XSECTIONS]

[TRANSECTS]

[LOSSES]

[CONTROLS]

[POLLUTANTS]

[LANDUSES]

[COVERAGES]

[BUILDUP]

[WASHOFF]

[TREATMENT]

[INFLOWS]

[DWF]

[RDII]

[LOADINGS]

[CURVES]

[TIMESERIES]
RAIN1	05/01/2004	0:0	0.000000
RAIN1	1:0	1.000000
RAIN1	2:0	1.000000
RAIN1	3:0	1.000000
RAIN1	4:0	1.000000
RAIN1	5:0	1.000000
RAIN1	10:0	1.000000
RAIN1	12:0	1.000000


[PATTERNS]

[REPORT]
;Report Option Set: BASE, Base Simulation Report
INPUT YES
CONTINUITY YES
FLOWSTATS YES
CONTROLS NO
SUBCATCHMENTS  ALL
NODES  ALL
LINKS  ALL

[COORDINATES]
PRARIE_CLAY_OUTLET	600.000000	1350.000000
PRARIE_SAND_OUTLET	1600.000000	1350.000000
TURF_CLAY_OUTLET	400.000000	1350.000000
TURF_SAND_OUTLET	1400.000000	1350.000000


[POLYGONS]

PRARIE_CLAY_LID	600.000000	1351.667000
PRARIE_CLAY_LID	500.000000	1451.667000
PRARIE_CLAY_LID	500.000000	1651.667000
PRARIE_CLAY_LID	700.000000	1651.667000
PRARIE_CLAY_LID	700.000000	1451.667000
PRARIE_CLAY_LID	600.000000	1351.667000

PRARIE_CLAY_ROOF	600.000000	1726.667000
PRARIE_CLAY_ROOF	500.000000	1826.667000
PRARIE_CLAY_ROOF	500.000000	2026.667000
PRARIE_CLAY_ROOF	700.000000	2026.667000
PRARIE_CLAY_ROOF	700.000000	1826.667000
PRARIE_CLAY_ROOF	600.000000	1726.667000

PRARIE_SAND_LID	1600.000000	1351.667000
PRARIE_SAND_LID	1500.000000	1451.667000
PRARIE_SAND_LID	1500.000000	1651.667000
PRARIE_SAND_LID	1700.000000	1651.667000
PRARIE_SAND_LID	1700.000000	1451.667000
PRARIE_SAND_LID	1600.000000	1351.667000

PRARIE_SAND_ROOF	1600.000000	1726.667000
PRARIE_SAND_ROOF	1500.000000	1826.667000
PRARIE_SAND_ROOF	1500.000000	2026.667000
PRARIE_SAND_ROOF	1700.000000	2026.667000
PRARIE_SAND_ROOF	1700.000000	1826.667000
PRARIE_SAND_ROOF	1600.000000	1726.667000

TURF_CLAY_LID	400.000000	1351.667000
TURF_CLAY_LID	300.000000	1451.667000
TURF_CLAY_LID	300.000000	1651.667000
TURF_CLAY_LID	500.000000	1651.667000
TURF_CLAY_LID	500.000000	1451.667000
TURF_CLAY_LID	400.000000	1351.667000

TURF_CLAY_ROOF	400.000000	1726.667000
TURF_CLAY_ROOF	300.000000	1826.667000
TURF_CLAY_ROOF	300.000000	2026.667000
TURF_CLAY_ROOF	500.000000	2026.667000
TURF_CLAY_ROOF	500.000000	1826.667000
TURF_CLAY_ROOF	400.000000	1726.667000

TURF_SAND_LID	1400.000000	1351.667000
TURF_SAND_LID	1300.000000	1451.667000
TURF_SAND_LID	1300.000000	1651.667000
TURF_SAND_LID	1500.000000	1651.667000
TURF_SAND_LID	1500.000000	1451.667000
TURF_SAND_LID	1400.000000	1351.667000

TURF_SAND_ROOF	1400.000000	1726.667000
TURF_SAND_ROOF	1300.000000	1826.667000
TURF_SAND_ROOF	1300.000000	2026.667000
TURF_SAND_ROOF	1500.000000	2026.667000
TURF_SAND_ROOF	1500.000000	1826.667000
TURF_SAND_ROOF	1400.000000	1726.667000

[VERTICES]


[SYMBOLS]
RG_CLAY	500.000000	1750.000000
RG_SAND	1500.000000	1750.000000

[MAP]
DIMENSIONS	230.000000	1316.166650	1770.000000	2060.500350

