[TITLE]
;;Project Title/Notes
Lavaca_Sample

[OPTIONS]
;;Option             Value
FLOW_UNITS           CMS
INFILTRATION         HORTON
FLOW_ROUTING         KINWAVE
LINK_OFFSETS         DEPTH
MIN_SLOPE            0
ALLOW_PONDING        NO
SKIP_STEADY_STATE    NO

START_DATE           01/01/2000
START_TIME           00:00:00
REPORT_START_DATE    01/01/2000
REPORT_START_TIME    00:00:00
END_DATE             01/01/2000
END_TIME             45:00:02
SWEEP_START          01/01
SWEEP_END            12/31
DRY_DAYS             5
REPORT_STEP          00:00:05
WET_STEP             00:15:00
DRY_STEP             01:00:00
ROUTING_STEP         0:00:01 

INERTIAL_DAMPING     NONE
NORMAL_FLOW_LIMITED  BOTH
FORCE_MAIN_EQUATION  D-W
VARIABLE_STEP        0.75
LENGTHENING_STEP     0
MIN_SURFAREA         12.557
MAX_TRIALS           8
HEAD_TOLERANCE       0.005
SYS_FLOW_TOL         5
LAT_FLOW_TOL         5
MINIMUM_STEP         0.5
THREADS              1

[EVAPORATION]
;;Data Source    Parameters
;;-------------- ----------------
CONSTANT         0.0
DRY_ONLY         NO

[JUNCTIONS]
;;Name           Elevation  MaxDepth   InitDepth  SurDepth   Aponded   
;;-------------- ---------- ---------- ---------- ---------- ----------
1465822_0      94.894      0      0.0      0      0
1465822_1      94.583      0      0.0      0      0
1465822_2      94.271      0      0.0      0      0
1465822_3      93.959      0      0.0      0      0
1465822_4      93.647      0      0.0      0      0
1465822_5      93.336      0      0.0      0      0
1465822_6      93.024      0      0.0      0      0
1465822_7      92.712      0      0.0      0      0
1465822_8      92.400      0      0.0      0      0
1465822_9      92.089      0      0.000      0      0
1465822_10      91.777      0      0.000      0      0
1465822_11      91.465      0      0.000      0      0
1465864_0      86.734      0      0.0      0      0
1465864_1      86.606      0      0.0      0      0
1465864_2      86.478      0      0.0      0      0
1465864_3      86.351      0      0.000      0      0
1465840_0      90.685      0      0.0      0      0
1465840_1      90.265      0      0.0      0      0
1465840_2      89.844      0      0.0      0      0
1465840_3      89.423      0      0.0      0      0
1465840_4      89.003      0      0.0      0      0
1465840_5      88.582      0      0.0      0      0
1465840_6      88.162      0      0.0      0      0
1465840_7      87.741      0      0.000      0      0
1465840_8      87.320      0      0.000      0      0
1465826_0      96.442      0      0.0      0      0
1465826_1      96.002      0      0.0      0      0
1465826_2      95.562      0      0.0      0      0
1465826_3      95.122      0      0.0      0      0
1465826_4      94.681      0      0.0      0      0
1465826_5      94.241      0      0.0      0      0
1465826_6      93.801      0      0.0      0      0
1465826_7      93.361      0      0.0      0      0
1465826_8      92.921      0      0.0      0      0
1465826_9      92.481      0      0.000      0      0
1465826_10      92.040      0      0.000      0      0
1465826_11      91.600      0      0.000      0      0
630008208      91.135      0      0.000      0      0
630008205      95.224      0      0.000      0      0
630008206      96.907      0      0.000      0      0
630008216      86.870      0      0.000      0      0


[OUTFALLS]
;;Name           Elevation  Type       Stage Data       Gated    Route To        
;;-------------- ---------- ---------- ---------------- -------- ----------------
630008220      86.214      FREE           NO
                     

[CONDUITS]
;;Name           From Node        To Node          Length     Roughness  InOffset   OutOffset  InitFlow   MaxFlow   
;;-------------- ---------------- ---------------- ---------- ---------- ---------- ---------- ---------- ----------
1      630008205      1465822_0      150      0.060      0      0      0.000 
2      1465822_0      1465822_1      141.7      0.060      0      0      0.00      
3      1465822_1      1465822_2      141.7      0.060      0      0      0.00      
4      1465822_2      1465822_3      141.7      0.060      0      0      0.00      
5      1465822_3      1465822_4      141.7      0.060      0      0      0.00      
6      1465822_4      1465822_5      141.7      0.060      0      0      0.00      
7      1465822_5      1465822_6      141.7      0.060      0      0      0.00      
8      1465822_6      1465822_7      141.7      0.060      0      0      0.00      
9      1465822_7      1465822_8      141.7      0.060      0      0      0.00      
10      1465822_8      1465822_9      141.7      0.060      0      0      0.00      
11      1465822_9      1465822_10      141.7      0.060      0      0      0.000      
12      1465822_10      1465822_11      141.7      0.060      0      0      0.000 
13      1465822_11      630008208      150      0.060      0      0      0.000      
14      630008206      1465826_0      150      0.060      0      0      0.000  
15      1465826_0      1465826_1      142.0      0.060      0      0      0.00      
16      1465826_1      1465826_2      142.0      0.060      0      0      0.00      
17      1465826_2      1465826_3      142.0      0.060      0      0      0.00      
18      1465826_3      1465826_4      142.0      0.060      0      0      0.00      
19      1465826_4      1465826_5      142.0      0.060      0      0      0.00      
20      1465826_5      1465826_6      142.0      0.060      0      0      0.00      
21      1465826_6      1465826_7      142.0      0.060      0      0      0.00      
22      1465826_7      1465826_8      142.0      0.060      0      0      0.0      
23      1465826_8      1465826_9      142.0      0.060      0      0      0.00      
24      1465826_9      1465826_10      142.0      0.060      0      0      0.000      
25      1465826_10      1465826_11      142.0      0.060      0      0      0.000   
26      1465826_11      630008208      150      0.060      0      0      0.000      
27      630008208      1465840_0      150      0.055      0      0      0.000     
28      1465840_0      1465840_1      140.2      0.055      0      0      0.00      
29      1465840_1      1465840_2      140.2      0.055      0      0      0.00      
30      1465840_2      1465840_3      140.2      0.055      0      0      0.00      
31      1465840_3      1465840_4      140.2      0.055      0      0      0.00      
32      1465840_4      1465840_5      140.2      0.055      0      0      0.00      
33      1465840_5      1465840_6      140.2      0.055      0      0      0.00      
34      1465840_6      1465840_7      140.2      0.055      0      0      0.00      
35      1465840_7      1465840_8      140.2      0.055      0      0      0.000   
36      1465840_8      630008216      150      0.055      0      0      0.000      
37      630008216      1465864_0      150      0.055      0      0      0.000 
38      1465864_0      1465864_1      140.4      0.055      0      0      0.00      
39      1465864_1      1465864_2      140.4      0.055      0      0      0.00      
40      1465864_2      1465864_3      140.4      0.055      0      0      0.00 
41      1465864_3      630008220      150      0.055      0      0      0.000      
       

[XSECTIONS]
;;Link           Shape        Geom1            Geom2      Geom3      Geom4      Barrels    Culvert   
;;-------------- ------------ ---------------- ---------- ---------- ---------- ---------- ----------
41      RECT_OPEN      100      20      0      0      1
40      RECT_OPEN      100      20      0      0      1
39      RECT_OPEN      100      20      0      0      1
38      RECT_OPEN      100      20      0      0      1
37      RECT_OPEN      100      20      0      0      1
36      RECT_OPEN      100      20      0      0      1
35      RECT_OPEN      100      20      0      0      1
34      RECT_OPEN      100      20      0      0      1
33      RECT_OPEN      100      20      0      0      1
32      RECT_OPEN      100      20      0      0      1
31      RECT_OPEN      100      20      0      0      1
30      RECT_OPEN      100      20      0      0      1
29      RECT_OPEN      100      20      0      0      1
28      RECT_OPEN      100      20      0      0      1
27      RECT_OPEN      100      20      0      0      1
26      RECT_OPEN      100      20      0      0      1
25      RECT_OPEN      100      20      0      0      1
24      RECT_OPEN      100      20      0      0      1
23      RECT_OPEN      100      20      0      0      1
22      RECT_OPEN      100      20      0      0      1
21      RECT_OPEN      100      20      0      0      1
20      RECT_OPEN      100      20      0      0      1
19      RECT_OPEN      100      20      0      0      1
18      RECT_OPEN      100      20      0      0      1
17      RECT_OPEN      100      20      0      0      1
16      RECT_OPEN      100      20      0      0      1
15      RECT_OPEN      100      20      0      0      1
14      RECT_OPEN      100      20      0      0      1
13      RECT_OPEN      100      20      0      0      1
12      RECT_OPEN      100      20      0      0      1
11      RECT_OPEN      100      20      0      0      1
10      RECT_OPEN      100      20      0      0      1
9      RECT_OPEN      100      20      0      0      1
8      RECT_OPEN      100      20      0      0      1
7      RECT_OPEN      100      20      0      0      1
6      RECT_OPEN      100      20      0      0      1
5      RECT_OPEN      100      20      0      0      1
4      RECT_OPEN      100      20      0      0      1
3      RECT_OPEN      100      20      0      0      1
2      RECT_OPEN      100      20      0      0      1
1      RECT_OPEN      100      20      0      0      1
        

[TRANSECTS]
;;Transect Data in HEC-2 format
;


[INFLOWS]
;;Node           Constituent      Time Series      Type     Mfactor  Sfactor  Baseline Pattern
;;-------------- ---------------- ---------------- -------- -------- -------- -------- --------   
630008205      FLOW      630008205      FLOW      1.0      1.0  
1465822_5      FLOW      brh02          FLOW      1.0      1.0 
     
       

[TIMESERIES]
;;Name           Date       Time       Value     
;;-------------- ---------- ---------- ----------
630008206      FILE      "/home/bhodges/SWMMengine/test_cases/Lateral_Small_Test/ExtFiles/630008206.dat"
630008205      FILE      "/home/bhodges/SWMMengine/test_cases/Lateral_Small_Test/ExtFiles/630008205.dat"
brh02          FILE      "/home/bhodges/SWMMengine/test_cases/Lateral_Small_Test/ExtFiles/brh02.dat"

[REPORT]
;;Reporting Options
SUBCATCHMENTS ALL
NODES ALL
LINKS ALL

[TAGS]

[MAP]
DIMENSIONS 0.000 0.000 10000.000 10000.000
Units      None

[COORDINATES]
;;Node           X-Coord            Y-Coord           
;;-------------- ------------------ ------------------
630008220      616      89
630008208      861      931
630008205      554      433
630008206      604      891
1465864_0      166      167
1465864_1      512      672
1465864_2      931      471
1465864_3      72      471
1465840_0      298      341
1465840_1      9      398
1465840_2      717      65
1465840_3      858      840
1465840_4      700      844
1465840_5      227      249
1465840_6      560      358
1465840_7      654      268
1465840_8      78      411
1465826_0      389      460
1465826_1      539      379
1465826_2      145      388
1465826_3      841      145
1465826_4      769      495
1465826_5      40      434
1465826_6      537      741
1465826_7      469      766
1465826_8      767      328
1465826_9      605      681
1465826_10      695      190
1465826_11      372      989
1465822_0      447      494
1465822_1      924      11
1465822_2      53      675
1465822_3      539      852
1465822_4      965      932
1465822_5      174      953
1465822_6      408      585
1465822_7      552      653
1465822_8      653      939
1465822_9      346      21
1465822_10      509      370
1465822_11      788      114
         

[VERTICES]
;;Link           X-Coord            Y-Coord           
;;-------------- ------------------ ------------------

