[TITLE]
;;Project Title/Notes
Pump Type 1 example

[OPTIONS]
;;Option             Value
FLOW_UNITS           CMS
INFILTRATION         HORTON
FLOW_ROUTING         DYNWAVE
LINK_OFFSETS         DEPTH
MIN_SLOPE            0
ALLOW_PONDING        NO
SKIP_STEADY_STATE    NO

START_DATE           07/24/2015
START_TIME           00:00:00
REPORT_START_DATE    07/24/2015
REPORT_START_TIME    00:00:00
END_DATE             07/24/2015
END_TIME             01:00:00
SWEEP_START          01/01
SWEEP_END            12/31
DRY_DAYS             0
REPORT_STEP          00:01:00
WET_STEP             00:05:00
DRY_STEP             01:00:00
ROUTING_STEP         0:00:01 
RULE_STEP            00:00:00

INERTIAL_DAMPING     NONE
NORMAL_FLOW_LIMITED  BOTH
FORCE_MAIN_EQUATION  H-W
VARIABLE_STEP        0.00
LENGTHENING_STEP     0
MIN_SURFAREA         1.14
MAX_TRIALS           8
HEAD_TOLERANCE       0.0015
SYS_FLOW_TOL         5
LAT_FLOW_TOL         5
MINIMUM_STEP         0.5
THREADS              1

[EVAPORATION]
;;Data Source    Parameters
;;-------------- ----------------
CONSTANT         0.0
DRY_ONLY         NO

[JUNCTIONS]
;;Name           Elevation  MaxDepth   InitDepth  SurDepth   Aponded   
;;-------------- ---------- ---------- ---------- ---------- ----------
J1                10         3          0          0          0  
J2                10         3          0          0          0 
J3                10         3          0          0          0 
J4                10         3          0          0          0         

[OUTFALLS]
;;Name           Elevation  Type       Stage Data       Gated    Route To        
;;-------------- ---------- ---------- ---------------- -------- ----------------
O1                10         FREE                        YES   
O2                10         FREE                        YES   
O3                10         FREE                        YES 
O4                10         FREE                        YES                                  

[STORAGE]
;;Name           Elev.    MaxDepth   InitDepth  Shape      Curve Type/Params             SurDepth  Fevap      Psi      Ksat     IMD     
;;-------------- -------- ---------- ----------- ---------- ---------------------------- --------- --------  -------- -------- -----
S1                0        10         9.5        FUNCTIONAL  10       2                       0        0         0 
S2                0        10         9.5        FUNCTIONAL  10       2                       0        0         0
S3                0        10         9.5        FUNCTIONAL  10       2                       0        0         0  
S4                0        10         9.5        FUNCTIONAL  10       2                       0        0         0                   

[CONDUITS]
;;Name           From Node        To Node          Length     Roughness  InOffset   OutOffset  InitFlow   MaxFlow   
;;-------------- ---------------- ---------------- ---------- ---------- ---------- ---------- ---------- ----------
C1                J1                O1              400        0.015       0          0          0          0   
C2                J2                O2              400        0.015       0          0          0          0 
C3                J3                O3              400        0.015       0          0          0          0
C4                J4                O4              400        0.015       0          0          0          0        

[PUMPS]
;;Name           From Node        To Node          Pump Curve       Status   Sartup Shutoff 
;;-------------- ---------------- ---------------- ---------------- ------ -------- --------
P1                S1                J1                PC1              ON       0.5      0.25   
P2                S2                J2                PC2              ON       0.5      0.25 
P3                S3                J3                PC3              ON       0.5      0.25
P4                S4                J4                PC4              ON       0.5      0.25         

[XSECTIONS]
;;Link           Shape        Geom1            Geom2      Geom3      Geom4      Barrels    Culvert   
;;-------------- ------------ ---------------- ---------- ---------- ---------- ---------- ----------
C1                CIRCULAR     3                0          0          0          1       
C2                CIRCULAR     3                0          0          0          1
C3                CIRCULAR     3                0          0          0          1 
C4                CIRCULAR     3                0          0          0          1                       

[CURVES]
;;Name           Type       X-Value    Y-Value   
;;-------------- ---------- ---------- ----------
PC1              Pump1      0          0         
PC1                         100        1         
PC1                         2000       3         
PC1                         3000       4 
;;
PC2              Pump2      0.5        1   
PC2                         1.5        2        
PC2                         2.5        3    
PC2                         3.5        4       
PC2                         4.5        5
;;  
PC3              Pump3      0.5        3.0         
PC3                         1.0        2.5  
PC3                         1.5        1.0         
PC3                         2.0        0.5 
;;
PC4              Pump4      0.5        0.2   
PC4                         1.5        0.6        
PC4                         2.5        1.0    
PC4                         3.5        1.5       
PC4                         4.5        2.0         


[LOSSES]
;;Name           Kentry             Kexit          Kavg       Flap       Seepage 
;;-------------- ---------------- ---------------- ---------- ---------- ---------- -
C1                  0                 0               0        YES         0
C2                  0                 0               0        YES         0
C3                  0                 0               0        YES         0
C4                  0                 0               0        YES         0

[REPORT]
;;Reporting Options
SUBCATCHMENTS ALL
NODES ALL
LINKS ALL

[TAGS]

[MAP]
DIMENSIONS -858.772 0.000 10000.000 10000.000
Units      None

[COORDINATES]
;;Node           X-Coord            Y-Coord           
;;-------------- ------------------ ------------------
2                4012.201           4690.518          
4                6948.161           6906.355          
1                1462.341           4663.607          

[VERTICES]
;;Link           X-Coord            Y-Coord           
;;-------------- ------------------ ------------------

[PROFILES]
;;Name
;;------------ ----------
"profile_1"    C3

