[TITLE]
;;Project Title/Notes

[OPTIONS]
;;Option             Value
FLOW_UNITS           CMS
INFILTRATION         MODIFIED_GREEN_AMPT
FLOW_ROUTING         DYNWAVE
LINK_OFFSETS         DEPTH
MIN_SLOPE            0
ALLOW_PONDING        NO
SKIP_STEADY_STATE    NO

START_DATE           09/29/2021
START_TIME           00:00:00
REPORT_START_DATE    09/29/2021
REPORT_START_TIME    00:00:00
END_DATE             09/29/2021
END_TIME             01:00:00
SWEEP_START          1/1
SWEEP_END            12/31
DRY_DAYS             0
REPORT_STEP          00:0:30
WET_STEP             00:05:00
DRY_STEP             01:00:00
ROUTING_STEP         0:00:01 
RULE_STEP            00:00:00

INERTIAL_DAMPING     NONE
NORMAL_FLOW_LIMITED  BOTH
FORCE_MAIN_EQUATION  D-W
VARIABLE_STEP        0.75
LENGTHENING_STEP     0
MIN_SURFAREA         0
MAX_TRIALS           0
HEAD_TOLERANCE       0
SYS_FLOW_TOL         5
LAT_FLOW_TOL         5
MINIMUM_STEP         0.5
THREADS              1

[EVAPORATION]
;;Data Source    Parameters
;;-------------- ----------------
CONSTANT         0.0
DRY_ONLY         NO

[JUNCTIONS]
;;Name           Elevation  MaxDepth   InitDepth  SurDepth   Aponded   
;;-------------- ---------- ---------- ---------- ---------- ----------
J4               0.2781     2          1          0          0         
J5               0.1390     2          1          0          0         
J6               0.1390     2          1          0          0  
J7               0.2781     2          1          0          0         
J8               0.1390     2          1          0          0         
J9               0.1390     2          1          0          0
J10               0.2781     2          1          0          0         
J11               0.1390     2          1          0          0         
J12               0.1390     2          1          0          0 
J13               0.2781     2          1          0          0         
J14               0.1390     2          1          0          0         
J15               0.1390     2          1          0          0          

[OUTFALLS]
;;Name           Elevation  Type       Stage Data       Gated    Route To        
;;-------------- ---------- ---------- ---------------- -------- ----------------     
Out2             0          FREE                         NO  
Out3             0          FREE                         NO
Out4             0          FREE                         NO
Out5             0          FREE                         NO                   
 
[CONDUITS]
;;Name           From Node        To Node          Length     Roughness  InOffset   OutOffset  InitFlow   MaxFlow   
;;-------------- ---------------- ---------------- ---------- ---------- ---------- ---------- ---------- ----------
C3               J4               J5               100        0.015       0          0          2.4599       0         
C4               J6               Out2             100        0.015       0          0          2.4599       0    
C5               J7               J8               100        0.015       0          0          2.4599       0         
C6               J9               Out3             100        0.015       0          0          2.4599       0  
C7               J10              J11              100        0.015       0          0          2.4599       0         
C8               J12              Out4             100        0.015       0          0          2.4599       0 
C9               J13              J14              100        0.015       0          0          2.4599       0         
C10              J15              Out5             100        0.015       0          0          2.4599       0  

[WEIRS]
;;               Inlet            Outlet           Weir         Crest      Disch.     Flap End      End       
;;Name           Node             Node             Type         Height     Coeff.     Gate Con.     Coeff.     Surcharge  RoadWidth  RoadSurf  
;;-------------- ---------------- ---------------- ------------ ---------- ---------- ---- -------- ---------- ---------- ---------- ----------
Sideflow         J5               J6              SIDEFLOW     0          1.84       NO   0        0          YES       
Transverse       J8               J9              TRANSVERSE   0          1.84       NO   0        0          YES       
Trapezoidal      J11              J12             TRAPEZOIDAL  0          1.84       NO   0        1.84       YES       
V-Notch          J14              J15             V-NOTCH      0          1.84       NO   0        0          YES        

[XSECTIONS]
;;Link           Shape        Geom1            Geom2      Geom3      Geom4      Barrels    Culvert   
;;-------------- ------------ ---------------- ---------- ---------- ---------- ---------- ----------      
C3               CIRCULAR     2                0          0          0          1                    
C4               CIRCULAR     2                0          0          0          1
C5               CIRCULAR     2                0          0          0          1                    
C6               CIRCULAR     2                0          0          0          1       
C7               CIRCULAR     2                0          0          0          1                    
C8               CIRCULAR     2                0          0          0          1 
C9               CIRCULAR     2                0          0          0          1                    
C10              CIRCULAR     2                0          0          0          1                          
Sideflow         RECT_OPEN    1                2          0          0         
Transverse       RECT_OPEN    1                2          0          0         
Trapezoidal      TRAPEZOIDAL  1                2          1          1         
V-Notch          TRIANGULAR   1                2          1          1     

[INFLOWS]
;;Node           Constituent      Time Series      Type     Mfactor  Sfactor  Baseline Pattern
;;-------------- ---------------- ---------------- -------- -------- -------- -------- --------
J4               FLOW             ""               FLOW     1.0      1.0      2.4599
J7               FLOW             ""               FLOW     1.0      1.0      2.4599
J10              FLOW             ""               FLOW     1.0      1.0      2.4599
J13              FLOW             ""               FLOW     1.0      1.0      2.4599

[REPORT]
;;Reporting Options
SUBCATCHMENTS ALL
NODES ALL
LINKS ALL

[TAGS]

[MAP]
DIMENSIONS 0.000 0.000 10000.000 10000.000
Units      None

[COORDINATES]
;;Node           X-Coord            Y-Coord           
;;-------------- ------------------ ------------------
         

[VERTICES]
;;Link           X-Coord            Y-Coord           
;;-------------- ------------------ ------------------

