[TITLE]
;;Project Title/Notes

[OPTIONS]
;;Option            	Value
FLOW_UNITS          	CFS
INFILTRATION        	HORTON
FLOW_ROUTING        	DYNWAVE
LINK_OFFSETS        	DEPTH
MIN_SLOPE           	0
ALLOW_PONDING       	YES
SKIP_STEADY_STATE   	NO

START_DATE          	01/01/2000
START_TIME          	00:00:00
REPORT_START_DATE   	01/01/2000
REPORT_START_TIME   	00:00:00
END_DATE            	01/01/2000
END_TIME            	00:15:00
SWEEP_START         	01/01
SWEEP_END           	01/01
DRY_DAYS            	0
REPORT_STEP         	00:00:01
WET_STEP            	00:15:00
DRY_STEP            	01:00:00
ROUTING_STEP        	0:00:01 

INERTIAL_DAMPING    	PARTIAL
NORMAL_FLOW_LIMITED 	BOTH
FORCE_MAIN_EQUATION 	H-W
VARIABLE_STEP       	0.00
LENGTHENING_STEP    	0
MIN_SURFAREA        	12.566
MAX_TRIALS          	8
HEAD_TOLERANCE      	0.005
SYS_FLOW_TOL        	5
LAT_FLOW_TOL        	5
MINIMUM_STEP        	0.1
THREADS             	1

[EVAPORATION]
;;Data Source   	Parameters
;;--------------	----------------
CONSTANT        	0.0
DRY_ONLY        	NO

[RAINGAGES]
;;Name          	Format   	Interval	SCF     	Source    
;;--------------	---------	------	------	----------
100_years_75%_Winter_Profile_Storms-281-15.000_min_+20%_Climate_Change-100yr	INTENSITY	00:00:09	1.0     	TIMESERIES	100_years_75%_Winter_Profile_Storms-281-15.000_min_+20%_Climate_Change-100yr_TS
100_years_75%_Winter_Profile_Storms-281-30.000_min_+20%_Climate_Change-100yr	INTENSITY	00:00:18	1.0     	TIMESERIES	100_years_75%_Winter_Profile_Storms-281-30.000_min_+20%_Climate_Change-100yr_TS
100_years_75%_Winter_Profile_Storms-281-60.000_min_+20%_Climate_Change-100yr	INTENSITY	00:00:36	1.0     	TIMESERIES	100_years_75%_Winter_Profile_Storms-281-60.000_min_+20%_Climate_Change-100yr_TS
100_years_75%_Winter_Profile_Storms-281-120.000_min_+20%_Climate_Change-100yr	INTENSITY	00:01:12	1.0     	TIMESERIES	100_years_75%_Winter_Profile_Storms-281-120.000_min_+20%_Climate_Change-100yr_TS

[JUNCTIONS]
;;Name          	Elevation 	MaxDepth  	InitDepth 	SurDepth  	Aponded   
;;--------------	----------	----------	----------	----------	----------
SWC3-14         	302.14566929013	5.364173228325	0         	0         	0         

[OUTFALLS]
;;Name          	Elevation 	Type      	Stage Data      	Gated   	Route To        
;;--------------	----------	----------	----------------	--------	----------------
CP3-15          	303.83858267595	FREE      	                	NO      	                

[STORAGE]
;;Name          	Elev.   	MaxDepth  	InitDepth 	Shape     	Curve Name/Params           	N/A     	Fevap   	Psi     	Ksat    	IMD     
;;--------------	--------	----------	-----------	----------	----------------------------	--------	--------	        	--------	--------
SWC3-13         	302.84120734787	5.364173228325	1.65      	FUNCTIONAL	0         0         12      	0       	0       
SWC3-7          	310.711942255975	6.42388451440996	0         	FUNCTIONAL	0         0         12      	0       	0       
SWC3-12         	304.609580051275	5.364173228325	0.87      	FUNCTIONAL	0         0         12      	0       	0       
SWC3-10         	307.2178477678	5.364173228325	0         	FUNCTIONAL	0         0         12      	0       	0       
SWC3-11         	306.8241469804	5.364173228325	0         	FUNCTIONAL	0         0         12      	0       	0       
SWC3-9          	307.9396325447	5.98753280837497	0         	FUNCTIONAL	0         0         12      	0       	0       
SWC3-8          	309.1207349069	6.30905511808504	0         	FUNCTIONAL	0         0         12      	0       	0       
SWC3-6          	311.696194224475	6.73556430443506	0         	FUNCTIONAL	0         0         12      	0       	0       
SWC3-1          	314.104330707405	5.364173228325	0         	FUNCTIONAL	0         0         12      	0       	0       

[CONDUITS]
;;Name          	From Node       	To Node         	Length    	Roughness 	InOffset  	OutOffset 	InitFlow  	MaxFlow   
;;--------------	----------------	----------------	----------	----------	----------	----------	----------	----------
300.000         	SWC3-1          	SWC3-6          	136.459973752735	0.012     	0.265748031495036	1.29593175852506	0         	0         
300.001         	SWC3-6          	SWC3-7          	164.48162729593	0.012     	0         	0         	0         	0         
300.002         	SWC3-7          	SWC3-8          	224.04855642955	0.012     	0         	0.246062992125019	0         	0         
300.003         	SWC3-8          	SWC3-9          	197.02755905433	0.012     	0         	0         	0         	0         
300.004         	SWC3-9          	SWC3-10         	164.078083988845	0.012     	0         	0.0328083989500101	0         	0         
300.005         	SWC3-10         	SWC3-11         	30.66272965867	0.012     	0.0328083989500101	0.262467191599967	0         	0         
300.006         	SWC3-11         	SWC3-12         	230.37401574711	0.012     	0.262467191599967	0.869422572174983	0         	0         
300.007         	SWC3-12         	SWC3-13         	229.78346456601	0.012     	0.869422572174983	1.65354330707999	0         	0         
300.008         	SWC3-13         	SWC3-14         	87.54593175818	0.012     	1.65354330707999	1.85695538057001	0         	0         
300.009         	SWC3-14         	CP3-15          	21.51574803141	0.012     	1.85695538057001	0         	0         	0         

[XSECTIONS]
;;Link          	Shape       	Geom1           	Geom2     	Geom3     	Geom4     	Barrels   	Culvert   
;;--------------	------------	----------------	----------	----------	----------	----------	----------
300.000         	CIRCULAR    	0.49212598425   	0         	0         	0         	1         	          
300.001         	CIRCULAR    	0.738188976375  	0         	0         	0         	1         	          
300.002         	CIRCULAR    	0.738188976375  	0         	0         	0         	1         	          
300.003         	CIRCULAR    	0.9842519685    	0         	0         	0         	1         	          
300.004         	CIRCULAR    	0.9842519685    	0         	0         	0         	1         	          
300.005         	CIRCULAR    	0.9842519685    	0         	0         	0         	1         	          
300.006         	CIRCULAR    	0.9842519685    	0         	0         	0         	1         	          
300.007         	CIRCULAR    	0.9842519685    	0         	0         	0         	1         	          
300.008         	CIRCULAR    	0.9842519685    	0         	0         	0         	1         	          
300.009         	CIRCULAR    	0.9842519685    	0         	0         	0         	1         	          

[INFLOWS]
;;Node          	Constituent     	Time Series     	Type    	Mfactor 	Sfactor 	Baseline	Pattern
;;--------------	----------------	----------------	--------	--------	--------	--------	--------
SWC3-14         	FLOW            	SWC3-14_Inflow_Ts	FLOW    	1.0     	1.0     	0       
SWC3-13         	FLOW            	SWC3-13_Inflow_Ts	FLOW    	1.0     	1.0     	0       
SWC3-7          	FLOW            	SWC3-7_Inflow_Ts	FLOW    	1.0     	1.0     	0       
SWC3-12         	FLOW            	SWC3-12_Inflow_Ts	FLOW    	1.0     	1.0     	0       
SWC3-10         	FLOW            	SWC3-10_Inflow_Ts	FLOW    	1.0     	1.0     	0       
SWC3-11         	FLOW            	SWC3-11_Inflow_Ts	FLOW    	1.0     	1.0     	0       
SWC3-9          	FLOW            	SWC3-9_Inflow_Ts	FLOW    	1.0     	1.0     	0       
SWC3-8          	FLOW            	SWC3-8_Inflow_Ts	FLOW    	1.0     	1.0     	0       
SWC3-6          	FLOW            	SWC3-6_Inflow_Ts	FLOW    	1.0     	1.0     	0       
SWC3-1          	FLOW            	SWC3-1_Inflow_Ts	FLOW    	1.0     	1.0     	0       

[TIMESERIES]
;;Name          	Date      	Time      	Value     
;;--------------	----------	----------	----------
SWC3-1_Inflow_Ts	          	0         	0         
SWC3-1_Inflow_Ts	          	0.000277777777777778	1.55836569319945E-05
SWC3-1_Inflow_Ts	          	0.000555555555555556	3.1167313863989E-05
SWC3-1_Inflow_Ts	          	0.000833333333333333	4.67509671580046E-05
SWC3-1_Inflow_Ts	          	0.00111111111111111	6.23346277279779E-05
SWC3-1_Inflow_Ts	          	0.00138888888888889	7.79182810219936E-05
SWC3-1_Inflow_Ts	          	0.00166666666666667	9.35019343160093E-05
SWC3-1_Inflow_Ts	          	0.00194444444444444	0.000109085594885983
SWC3-1_Inflow_Ts	          	0.00222222222222222	0.000124669255455956
SWC3-1_Inflow_Ts	          	0.0025    	0.000140252901474014
SWC3-1_Inflow_Ts	          	0.00277777777777778	0.000342840445227921
SWC3-1_Inflow_Ts	          	0.00305555555555556	0.000545427959877998
SWC3-1_Inflow_Ts	          	0.00333333333333333	0.000748015474528074
SWC3-1_Inflow_Ts	          	0.00361111111111111	0.000950603047385812
SWC3-1_Inflow_Ts	          	0.00388888888888889	0.00115319050382823
SWC3-1_Inflow_Ts	          	0.00416666666666667	0.00135577807668597
SWC3-1_Inflow_Ts	          	0.00444444444444444	0.0015583656495437
SWC3-1_Inflow_Ts	          	0.00472222222222222	0.00176095310598612
SWC3-1_Inflow_Ts	          	0.005     	0.00196354067884386
SWC3-1_Inflow_Ts	          	0.00527777777777778	0.00227521383203566
SWC3-1_Inflow_Ts	          	0.00555555555555556	0.00258688698522747
SWC3-1_Inflow_Ts	          	0.00583333333333333	0.00289856013841927
SWC3-1_Inflow_Ts	          	0.00611111111111111	0.00321023305878043
SWC3-1_Inflow_Ts	          	0.00638888888888889	0.00352190621197224
SWC3-1_Inflow_Ts	          	0.00666666666666667	0.00383357936516404
SWC3-1_Inflow_Ts	          	0.00694444444444444	0.00414525251835585
SWC3-1_Inflow_Ts	          	0.00722222222222222	0.00445692567154765
SWC3-1_Inflow_Ts	          	0.0075    	0.00476859882473946
SWC3-1_Inflow_Ts	          	0.00777777777777778	0.00509585533291101
SWC3-1_Inflow_Ts	          	0.00805555555555556	0.00542311230674386
SWC3-1_Inflow_Ts	          	0.00833333333333333	0.00575036928057671
SWC3-1_Inflow_Ts	          	0.00861111111111111	0.00607762578874826
SWC3-1_Inflow_Ts	          	0.00888888888888889	0.00640488276258111
SWC3-1_Inflow_Ts	          	0.00916666666666667	0.00673213927075267
SWC3-1_Inflow_Ts	          	0.00944444444444444	0.00705939624458551
SWC3-1_Inflow_Ts	          	0.00972222222222222	0.00738665321841836
SWC3-1_Inflow_Ts	          	0.01      	0.00771390972658992
SWC3-1_Inflow_Ts	          	0.0102777777777778	0.0080567505210638
SWC3-1_Inflow_Ts	          	0.0105555555555556	0.0083995908498764
SWC3-1_Inflow_Ts	          	0.0108333333333333	0.008742431178689
SWC3-1_Inflow_Ts	          	0.0111111111111111	0.0090852715075016
SWC3-1_Inflow_Ts	          	0.0113888888888889	0.0094281118363142
SWC3-1_Inflow_Ts	          	0.0116666666666667	0.0097709521651268
SWC3-1_Inflow_Ts	          	0.0119444444444444	0.0101137924939394
SWC3-1_Inflow_Ts	          	0.0122222222222222	0.010456632822752
SWC3-1_Inflow_Ts	          	0.0125    	0.0107994740828872
SWC3-1_Inflow_Ts	          	0.0127777777777778	0.0111578982323408
SWC3-1_Inflow_Ts	          	0.0130555555555556	0.0115163214504719
SWC3-1_Inflow_Ts	          	0.0133333333333333	0.0118747455999255
SWC3-1_Inflow_Ts	          	0.0136111111111111	0.0122331697493792
SWC3-1_Inflow_Ts	          	0.0138888888888889	0.0125915938988328
SWC3-1_Inflow_Ts	          	0.0141666666666667	0.0129500180482864
SWC3-1_Inflow_Ts	          	0.0144444444444444	0.0133084421977401
SWC3-1_Inflow_Ts	          	0.0147222222222222	0.0136668663471937
SWC3-1_Inflow_Ts	          	0.015     	0.0140252904966474
SWC3-1_Inflow_Ts	          	0.0152777777777778	0.0144148822873831
SWC3-1_Inflow_Ts	          	0.0155555555555556	0.0148044731467962
SWC3-1_Inflow_Ts	          	0.0158333333333333	0.0151940649375319
SWC3-1_Inflow_Ts	          	0.0161111111111111	0.0155836557969451
SWC3-1_Inflow_Ts	          	0.0163888888888889	0.0159732475876808
SWC3-1_Inflow_Ts	          	0.0166666666666667	0.016362838447094
SWC3-1_Inflow_Ts	          	0.0169444444444444	0.0167524311691523
SWC3-1_Inflow_Ts	          	0.0172222222222222	0.0171420220285654
SWC3-1_Inflow_Ts	          	0.0175    	0.0175316128879786
SWC3-1_Inflow_Ts	          	0.0177777777777778	0.0179523713886738
SWC3-1_Inflow_Ts	          	0.0180555555555556	0.018373129889369
SWC3-1_Inflow_Ts	          	0.0183333333333333	0.0187938883900642
SWC3-1_Inflow_Ts	          	0.0186111111111111	0.0192146487534046
SWC3-1_Inflow_Ts	          	0.0188888888888889	0.0196354072540998
SWC3-1_Inflow_Ts	          	0.0191666666666667	0.0200561657547951
SWC3-1_Inflow_Ts	          	0.0194444444444444	0.0204769242554903
SWC3-1_Inflow_Ts	          	0.0197222222222222	0.0208976827561855
SWC3-1_Inflow_Ts	          	0.02      	0.0213184412568808
SWC3-1_Inflow_Ts	          	0.0202777777777778	0.0217547845095396
SWC3-1_Inflow_Ts	          	0.0205555555555556	0.0221911258995533
SWC3-1_Inflow_Ts	          	0.0208333333333333	0.0226274691522121
SWC3-1_Inflow_Ts	          	0.0211111111111111	0.0230638105422258
SWC3-1_Inflow_Ts	          	0.0213888888888889	0.0235001537948847
SWC3-1_Inflow_Ts	          	0.0216666666666667	0.0239364951848984
SWC3-1_Inflow_Ts	          	0.0219444444444444	0.0243728384375572
SWC3-1_Inflow_Ts	          	0.0222222222222222	0.0248091798275709
SWC3-1_Inflow_Ts	          	0.0225    	0.0252455230802298
SWC3-1_Inflow_Ts	          	0.0227777777777778	0.0256974492222071
SWC3-1_Inflow_Ts	          	0.0230555555555556	0.0261493753641844
SWC3-1_Inflow_Ts	          	0.0233333333333333	0.0266013015061617
SWC3-1_Inflow_Ts	          	0.0236111111111111	0.027053227648139
SWC3-1_Inflow_Ts	          	0.0238888888888889	0.0275051537901163
SWC3-1_Inflow_Ts	          	0.0241666666666667	0.0279570799320936
SWC3-1_Inflow_Ts	          	0.0244444444444444	0.0284090042114258
SWC3-1_Inflow_Ts	          	0.0247222222222222	0.0288609303534031
SWC3-1_Inflow_Ts	          	0.025     	0.0293128564953804
SWC3-1_Inflow_Ts	          	0.0252777777777778	0.0298115350306034
SWC3-1_Inflow_Ts	          	0.0255555555555556	0.0303102117031813
SWC3-1_Inflow_Ts	          	0.0258333333333333	0.0308088883757591
SWC3-1_Inflow_Ts	          	0.0261111111111111	0.0313075669109821
SWC3-1_Inflow_Ts	          	0.0263888888888889	0.0318062417209148
SWC3-1_Inflow_Ts	          	0.0266666666666667	0.0323049202561378
SWC3-1_Inflow_Ts	          	0.0269444444444444	0.0328035950660706
SWC3-1_Inflow_Ts	          	0.0272222222222222	0.0333022736012936
SWC3-1_Inflow_Ts	          	0.0275    	0.0338009484112263
SWC3-1_Inflow_Ts	          	0.0277777777777778	0.0343152098357677
SWC3-1_Inflow_Ts	          	0.0280555555555556	0.0348294712603092
SWC3-1_Inflow_Ts	          	0.0283333333333333	0.0353437326848507
SWC3-1_Inflow_Ts	          	0.0286111111111111	0.0358579941093922
SWC3-1_Inflow_Ts	          	0.0288888888888889	0.0363722518086433
SWC3-1_Inflow_Ts	          	0.0291666666666667	0.0368865132331848
SWC3-1_Inflow_Ts	          	0.0294444444444444	0.0374007746577263
SWC3-1_Inflow_Ts	          	0.0297222222222222	0.0379150360822678
SWC3-1_Inflow_Ts	          	0.03      	0.0384292975068092
SWC3-1_Inflow_Ts	          	0.0302777777777778	0.0389747247099876
SWC3-1_Inflow_Ts	          	0.0305555555555556	0.039520151913166
SWC3-1_Inflow_Ts	          	0.0308333333333333	0.0400655791163445
SWC3-1_Inflow_Ts	          	0.0311111111111111	0.0406110063195229
SWC3-1_Inflow_Ts	          	0.0313888888888889	0.0411564372479916
SWC3-1_Inflow_Ts	          	0.0316666666666667	0.04170186445117
SWC3-1_Inflow_Ts	          	0.0319444444444444	0.0422472916543484
SWC3-1_Inflow_Ts	          	0.0322222222222222	0.0427927188575268
SWC3-1_Inflow_Ts	          	0.0325    	0.0433381460607052
SWC3-1_Inflow_Ts	          	0.0327777777777778	0.0439147427678108
SWC3-1_Inflow_Ts	          	0.0330555555555556	0.0444913394749165
SWC3-1_Inflow_Ts	          	0.0333333333333333	0.0450679324567318
SWC3-1_Inflow_Ts	          	0.0336111111111111	0.0456445291638374
SWC3-1_Inflow_Ts	          	0.0338888888888889	0.0462211258709431
SWC3-1_Inflow_Ts	          	0.0341666666666667	0.0467977188527584
SWC3-1_Inflow_Ts	          	0.0344444444444444	0.047374315559864
SWC3-1_Inflow_Ts	          	0.0347222222222222	0.0479509085416794
SWC3-1_Inflow_Ts	          	0.035     	0.048527505248785
SWC3-1_Inflow_Ts	          	0.0352777777777778	0.0491508506238461
SWC3-1_Inflow_Ts	          	0.0355555555555556	0.0497741959989071
SWC3-1_Inflow_Ts	          	0.0358333333333333	0.0503975450992584
SWC3-1_Inflow_Ts	          	0.0361111111111111	0.0510208904743195
SWC3-1_Inflow_Ts	          	0.0363888888888889	0.0516442358493805
SWC3-1_Inflow_Ts	          	0.0366666666666667	0.0522675812244415
SWC3-1_Inflow_Ts	          	0.0369444444444444	0.0528909303247929
SWC3-1_Inflow_Ts	          	0.0372222222222222	0.0535142756998539
SWC3-1_Inflow_Ts	          	0.0375    	0.0541376210749149
SWC3-1_Inflow_Ts	          	0.0377777777777778	0.0547921359539032
SWC3-1_Inflow_Ts	          	0.0380555555555556	0.0554466471076012
SWC3-1_Inflow_Ts	          	0.0383333333333333	0.0561011619865894
SWC3-1_Inflow_Ts	          	0.0386111111111111	0.0567556768655777
SWC3-1_Inflow_Ts	          	0.0388888888888889	0.0574101880192757
SWC3-1_Inflow_Ts	          	0.0391666666666667	0.0580647028982639
SWC3-1_Inflow_Ts	          	0.0394444444444444	0.0587192177772522
SWC3-1_Inflow_Ts	          	0.0397222222222222	0.0593737289309502
SWC3-1_Inflow_Ts	          	0.04      	0.0600282438099384
SWC3-1_Inflow_Ts	          	0.0402777777777778	0.0607139244675636
SWC3-1_Inflow_Ts	          	0.0405555555555556	0.0613996051251888
SWC3-1_Inflow_Ts	          	0.0408333333333333	0.062085285782814
SWC3-1_Inflow_Ts	          	0.0411111111111111	0.0627709701657295
SWC3-1_Inflow_Ts	          	0.0413888888888889	0.0634566470980644
SWC3-1_Inflow_Ts	          	0.0416666666666667	0.0641423314809799
SWC3-1_Inflow_Ts	          	0.0419444444444444	0.0648280084133148
SWC3-1_Inflow_Ts	          	0.0422222222222222	0.0655136927962303
SWC3-1_Inflow_Ts	          	0.0425    	0.0661993697285652
SWC3-1_Inflow_Ts	          	0.0427777777777778	0.0669318065047264
SWC3-1_Inflow_Ts	          	0.0430555555555556	0.067664235830307
SWC3-1_Inflow_Ts	          	0.0433333333333333	0.0683966651558876
SWC3-1_Inflow_Ts	          	0.0436111111111111	0.0691291019320488
SWC3-1_Inflow_Ts	          	0.0438888888888889	0.0698615312576294
SWC3-1_Inflow_Ts	          	0.0441666666666667	0.07059396058321
SWC3-1_Inflow_Ts	          	0.0444444444444444	0.0713263973593712
SWC3-1_Inflow_Ts	          	0.0447222222222222	0.0720588266849518
SWC3-1_Inflow_Ts	          	0.045     	0.0727912560105324
SWC3-1_Inflow_Ts	          	0.0452777777777778	0.0735704377293587
SWC3-1_Inflow_Ts	          	0.0455555555555556	0.0743496268987656
SWC3-1_Inflow_Ts	          	0.0458333333333333	0.0751288086175919
SWC3-1_Inflow_Ts	          	0.0461111111111111	0.0759079903364182
SWC3-1_Inflow_Ts	          	0.0463888888888889	0.0766871720552444
SWC3-1_Inflow_Ts	          	0.0466666666666667	0.0774663537740707
SWC3-1_Inflow_Ts	          	0.0469444444444444	0.078245535492897
SWC3-1_Inflow_Ts	          	0.0472222222222222	0.0790247172117233
SWC3-1_Inflow_Ts	          	0.0475    	0.0798039063811302
SWC3-1_Inflow_Ts	          	0.0477777777777778	0.0806298330426216
SWC3-1_Inflow_Ts	          	0.0480555555555556	0.0814557671546936
SWC3-1_Inflow_Ts	          	0.0483333333333333	0.0822817012667656
SWC3-1_Inflow_Ts	          	0.0486111111111111	0.0831076353788376
SWC3-1_Inflow_Ts	          	0.0488888888888889	0.0839335694909096
SWC3-1_Inflow_Ts	          	0.0491666666666667	0.0847595036029816
SWC3-1_Inflow_Ts	          	0.0494444444444444	0.0855854377150536
SWC3-1_Inflow_Ts	          	0.0497222222222222	0.0864113718271255
SWC3-1_Inflow_Ts	          	0.05      	0.0872373059391975
SWC3-1_Inflow_Ts	          	0.0502777777777778	0.0881099924445152
SWC3-1_Inflow_Ts	          	0.0505555555555556	0.0889826789498329
SWC3-1_Inflow_Ts	          	0.0508333333333333	0.08985535800457
SWC3-1_Inflow_Ts	          	0.0511111111111111	0.0907280445098877
SWC3-1_Inflow_Ts	          	0.0513888888888889	0.0916007310152054
SWC3-1_Inflow_Ts	          	0.0516666666666667	0.0924734175205231
SWC3-1_Inflow_Ts	          	0.0519444444444444	0.0933460965752602
SWC3-1_Inflow_Ts	          	0.0522222222222222	0.0942187830805779
SWC3-1_Inflow_Ts	          	0.0525    	0.0950914695858955
SWC3-1_Inflow_Ts	          	0.0527777777777778	0.0960109084844589
SWC3-1_Inflow_Ts	          	0.0530555555555556	0.0969303399324417
SWC3-1_Inflow_Ts	          	0.0533333333333333	0.0978497788310051
SWC3-1_Inflow_Ts	          	0.0536111111111111	0.0987692102789879
SWC3-1_Inflow_Ts	          	0.0538888888888889	0.0996886491775513
SWC3-1_Inflow_Ts	          	0.0541666666666667	0.100608080625534
SWC3-1_Inflow_Ts	          	0.0544444444444444	0.101527519524097
SWC3-1_Inflow_Ts	          	0.0547222222222222	0.102446958422661
SWC3-1_Inflow_Ts	          	0.055     	0.103366389870644
SWC3-1_Inflow_Ts	          	0.0552777777777778	0.104348160326481
SWC3-1_Inflow_Ts	          	0.0555555555555556	0.105329930782318
SWC3-1_Inflow_Ts	          	0.0558333333333333	0.106311701238155
SWC3-1_Inflow_Ts	          	0.0561111111111111	0.107293471693993
SWC3-1_Inflow_Ts	          	0.0563888888888889	0.10827524214983
SWC3-1_Inflow_Ts	          	0.0566666666666667	0.109257012605667
SWC3-1_Inflow_Ts	          	0.0569444444444444	0.110238783061504
SWC3-1_Inflow_Ts	          	0.0572222222222222	0.111220553517342
SWC3-1_Inflow_Ts	          	0.0575    	0.112202323973179
SWC3-1_Inflow_Ts	          	0.0577777777777778	0.11324642598629
SWC3-1_Inflow_Ts	          	0.0580555555555556	0.114290535449982
SWC3-1_Inflow_Ts	          	0.0583333333333333	0.115334637463093
SWC3-1_Inflow_Ts	          	0.0586111111111111	0.116378746926785
SWC3-1_Inflow_Ts	          	0.0588888888888889	0.117422848939896
SWC3-1_Inflow_Ts	          	0.0591666666666667	0.118466950953007
SWC3-1_Inflow_Ts	          	0.0594444444444444	0.119511060416698
SWC3-1_Inflow_Ts	          	0.0597222222222222	0.12055516242981
SWC3-1_Inflow_Ts	          	0.06      	0.121599271893501
SWC3-1_Inflow_Ts	          	0.0602777777777778	0.122690126299858
SWC3-1_Inflow_Ts	          	0.0605555555555556	0.123780980706215
SWC3-1_Inflow_Ts	          	0.0608333333333333	0.124871835112572
SWC3-1_Inflow_Ts	          	0.0611111111111111	0.125962689518929
SWC3-1_Inflow_Ts	          	0.0613888888888889	0.127053543925285
SWC3-1_Inflow_Ts	          	0.0616666666666667	0.128144398331642
SWC3-1_Inflow_Ts	          	0.0619444444444444	0.129235252737999
SWC3-1_Inflow_Ts	          	0.0622222222222222	0.130326122045517
SWC3-1_Inflow_Ts	          	0.0625    	0.131416976451874
SWC3-1_Inflow_Ts	          	0.0627777777777778	0.132585749030113
SWC3-1_Inflow_Ts	          	0.0630555555555556	0.133754521608353
SWC3-1_Inflow_Ts	          	0.0633333333333333	0.134923294186592
SWC3-1_Inflow_Ts	          	0.0636111111111111	0.136092066764832
SWC3-1_Inflow_Ts	          	0.0638888888888889	0.137260839343071
SWC3-1_Inflow_Ts	          	0.0641666666666667	0.13842961192131
SWC3-1_Inflow_Ts	          	0.0644444444444444	0.13959838449955
SWC3-1_Inflow_Ts	          	0.0647222222222222	0.140767171978951
SWC3-1_Inflow_Ts	          	0.065     	0.14193594455719
SWC3-1_Inflow_Ts	          	0.0652777777777778	0.143167048692703
SWC3-1_Inflow_Ts	          	0.0655555555555556	0.144398152828217
SWC3-1_Inflow_Ts	          	0.0658333333333333	0.145629271864891
SWC3-1_Inflow_Ts	          	0.0661111111111111	0.146860376000404
SWC3-1_Inflow_Ts	          	0.0663888888888889	0.148091480135918
SWC3-1_Inflow_Ts	          	0.0666666666666667	0.149322599172592
SWC3-1_Inflow_Ts	          	0.0669444444444444	0.150553703308105
SWC3-1_Inflow_Ts	          	0.0672222222222222	0.151784807443619
SWC3-1_Inflow_Ts	          	0.0675    	0.153015926480293
SWC3-1_Inflow_Ts	          	0.0677777777777778	0.154324948787689
SWC3-1_Inflow_Ts	          	0.0680555555555556	0.155633971095085
SWC3-1_Inflow_Ts	          	0.0683333333333333	0.156942993402481
SWC3-1_Inflow_Ts	          	0.0686111111111111	0.158252030611038
SWC3-1_Inflow_Ts	          	0.0688888888888889	0.159561052918434
SWC3-1_Inflow_Ts	          	0.0691666666666667	0.16087007522583
SWC3-1_Inflow_Ts	          	0.0694444444444444	0.162179112434387
SWC3-1_Inflow_Ts	          	0.0697222222222222	0.163488134741783
SWC3-1_Inflow_Ts	          	0.07      	0.164797157049179
SWC3-1_Inflow_Ts	          	0.0702777777777778	0.16616852581501
SWC3-1_Inflow_Ts	          	0.0705555555555556	0.16753987967968
SWC3-1_Inflow_Ts	          	0.0708333333333333	0.168911248445511
SWC3-1_Inflow_Ts	          	0.0711111111111111	0.170282617211342
SWC3-1_Inflow_Ts	          	0.0713888888888889	0.171653971076012
SWC3-1_Inflow_Ts	          	0.0716666666666667	0.173025339841843
SWC3-1_Inflow_Ts	          	0.0719444444444445	0.174396693706512
SWC3-1_Inflow_Ts	          	0.0722222222222222	0.175768062472343
SWC3-1_Inflow_Ts	          	0.0725    	0.177139416337013
SWC3-1_Inflow_Ts	          	0.0727777777777778	0.178604289889336
SWC3-1_Inflow_Ts	          	0.0730555555555556	0.180069148540497
SWC3-1_Inflow_Ts	          	0.0733333333333333	0.181534007191658
SWC3-1_Inflow_Ts	          	0.0736111111111111	0.18299888074398
SWC3-1_Inflow_Ts	          	0.0738888888888889	0.184463739395142
SWC3-1_Inflow_Ts	          	0.0741666666666667	0.185928598046303
SWC3-1_Inflow_Ts	          	0.0744444444444444	0.187393471598625
SWC3-1_Inflow_Ts	          	0.0747222222222222	0.188858330249786
SWC3-1_Inflow_Ts	          	0.075     	0.190323188900948
SWC3-1_Inflow_Ts	          	0.0752777777777778	0.1918815523386
SWC3-1_Inflow_Ts	          	0.0755555555555556	0.193439930677414
SWC3-1_Inflow_Ts	          	0.0758333333333333	0.194998294115067
SWC3-1_Inflow_Ts	          	0.0761111111111111	0.196556657552719
SWC3-1_Inflow_Ts	          	0.0763888888888889	0.198115020990372
SWC3-1_Inflow_Ts	          	0.0766666666666667	0.199673384428024
SWC3-1_Inflow_Ts	          	0.0769444444444444	0.201231747865677
SWC3-1_Inflow_Ts	          	0.0772222222222222	0.202790111303329
SWC3-1_Inflow_Ts	          	0.0775    	0.204348489642143
SWC3-1_Inflow_Ts	          	0.0777777777777778	0.206000342965126
SWC3-1_Inflow_Ts	          	0.0780555555555556	0.20765221118927
SWC3-1_Inflow_Ts	          	0.0783333333333333	0.209304079413414
SWC3-1_Inflow_Ts	          	0.0786111111111111	0.210955947637558
SWC3-1_Inflow_Ts	          	0.0788888888888889	0.212607815861702
SWC3-1_Inflow_Ts	          	0.0791666666666667	0.214259684085846
SWC3-1_Inflow_Ts	          	0.0794444444444444	0.21591155230999
SWC3-1_Inflow_Ts	          	0.0797222222222222	0.217563420534134
SWC3-1_Inflow_Ts	          	0.08      	0.219215288758278
SWC3-1_Inflow_Ts	          	0.0802777777777778	0.220945075154305
SWC3-1_Inflow_Ts	          	0.0805555555555556	0.222674861550331
SWC3-1_Inflow_Ts	          	0.0808333333333333	0.224404647946358
SWC3-1_Inflow_Ts	          	0.0811111111111111	0.226134434342384
SWC3-1_Inflow_Ts	          	0.0813888888888889	0.227864220738411
SWC3-1_Inflow_Ts	          	0.0816666666666667	0.229594007134438
SWC3-1_Inflow_Ts	          	0.0819444444444444	0.231323793530464
SWC3-1_Inflow_Ts	          	0.0822222222222222	0.233053579926491
SWC3-1_Inflow_Ts	          	0.0825    	0.234783366322517
SWC3-1_Inflow_Ts	          	0.0827777777777778	0.236637815833092
SWC3-1_Inflow_Ts	          	0.0830555555555555	0.238492280244827
SWC3-1_Inflow_Ts	          	0.0833333333333333	0.240346729755402
SWC3-1_Inflow_Ts	          	0.0836111111111111	0.242185592651367
SWC3-1_Inflow_Ts	          	0.0838888888888889	0.244024470448494
SWC3-1_Inflow_Ts	          	0.0841666666666667	0.245863348245621
SWC3-1_Inflow_Ts	          	0.0844444444444444	0.247702211141586
SWC3-1_Inflow_Ts	          	0.0847222222222222	0.249541088938713
SWC3-1_Inflow_Ts	          	0.085     	0.25137996673584
SWC3-1_Inflow_Ts	          	0.0852777777777778	0.253312319517136
SWC3-1_Inflow_Ts	          	0.0855555555555556	0.255244702100754
SWC3-1_Inflow_Ts	          	0.0858333333333333	0.257177084684372
SWC3-1_Inflow_Ts	          	0.0861111111111111	0.258922457695007
SWC3-1_Inflow_Ts	          	0.0863888888888889	0.26066780090332
SWC3-1_Inflow_Ts	          	0.0866666666666667	0.262413173913956
SWC3-1_Inflow_Ts	          	0.0869444444444444	0.264158546924591
SWC3-1_Inflow_Ts	          	0.0872222222222222	0.265903919935226
SWC3-1_Inflow_Ts	          	0.0875    	0.267649292945862
SWC3-1_Inflow_Ts	          	0.0877777777777778	0.269519329071045
SWC3-1_Inflow_Ts	          	0.0880555555555556	0.271389365196228
SWC3-1_Inflow_Ts	          	0.0883333333333333	0.273259401321411
SWC3-1_Inflow_Ts	          	0.0886111111111111	0.275020360946655
SWC3-1_Inflow_Ts	          	0.0888888888888889	0.276781320571899
SWC3-1_Inflow_Ts	          	0.0891666666666667	0.278542280197144
SWC3-1_Inflow_Ts	          	0.0894444444444444	0.280303210020065
SWC3-1_Inflow_Ts	          	0.0897222222222222	0.282064169645309
SWC3-1_Inflow_Ts	          	0.09      	0.283825129270554
SWC3-1_Inflow_Ts	          	0.0902777777777778	0.285710752010345
SWC3-1_Inflow_Ts	          	0.0905555555555556	0.287596374750137
SWC3-1_Inflow_Ts	          	0.0908333333333333	0.289481997489929
SWC3-1_Inflow_Ts	          	0.0911111111111111	0.291352033615112
SWC3-1_Inflow_Ts	          	0.0913888888888889	0.293222069740295
SWC3-1_Inflow_Ts	          	0.0916666666666667	0.295092105865479
SWC3-1_Inflow_Ts	          	0.0919444444444444	0.296962141990662
SWC3-1_Inflow_Ts	          	0.0922222222222222	0.298832178115845
SWC3-1_Inflow_Ts	          	0.0925    	0.300702214241028
SWC3-1_Inflow_Ts	          	0.0927777777777778	0.302696943283081
SWC3-1_Inflow_Ts	          	0.0930555555555556	0.304691642522812
SWC3-1_Inflow_Ts	          	0.0933333333333333	0.306686341762543
SWC3-1_Inflow_Ts	          	0.0936111111111111	0.308665484189987
SWC3-1_Inflow_Ts	          	0.0938888888888889	0.310644596815109
SWC3-1_Inflow_Ts	          	0.0941666666666667	0.312623739242554
SWC3-1_Inflow_Ts	          	0.0944444444444444	0.314602851867676
SWC3-1_Inflow_Ts	          	0.0947222222222222	0.316581964492798
SWC3-1_Inflow_Ts	          	0.095     	0.318561106920242