[TITLE]
;;Project Title/Notes

[OPTIONS]
;;Option             Value
FLOW_UNITS           CFS
INFILTRATION         HORTON
FLOW_ROUTING         DYNWAVE
LINK_OFFSETS         DEPTH
MIN_SLOPE            0
ALLOW_PONDING        NO
SKIP_STEADY_STATE    NO

START_DATE           11/09/2017
START_TIME           00:00:00
REPORT_START_DATE    11/09/2017
REPORT_START_TIME    00:00:00
END_DATE             11/09/2017
END_TIME             06:00:00
SWEEP_START          01/01
SWEEP_END            12/31
DRY_DAYS             0
REPORT_STEP          00:01:00
WET_STEP             00:05:00
DRY_STEP             00:05:00
ROUTING_STEP         0:00:01 

INERTIAL_DAMPING     PARTIAL
NORMAL_FLOW_LIMITED  BOTH
FORCE_MAIN_EQUATION  H-W
VARIABLE_STEP        0.00
LENGTHENING_STEP     0
MIN_SURFAREA         12.557
MAX_TRIALS           8
HEAD_TOLERANCE       0.0001
SYS_FLOW_TOL         5
LAT_FLOW_TOL         5
MINIMUM_STEP         0.5
THREADS              4

[EVAPORATION]
;;Data Source    Parameters
;;-------------- ----------------
CONSTANT         0.0
DRY_ONLY         NO

[JUNCTIONS]
;;Name           Elevation  MaxDepth   InitDepth  SurDepth   Aponded   
;;-------------- ---------- ---------- ---------- ---------- ----------
J1               0.02       20         0          0          0         
J2               0.025      20         0          0          0         
J3               0.03       20         0          0          0         
J4               0.034      20         0          0          0         
J5               0.038      20         0          0          0         
J6               0.044      20         0          0          0         
J7               0.049      20         0          0          0         
J8               0.054      20         0          0          0         

[OUTFALLS]
;;Name           Elevation  Type       Stage Data       Gated    Route To        
;;-------------- ---------- ---------- ---------------- -------- ----------------
OF1              0          FIXED      2                NO                       
OF2              0          FIXED      5                NO                       
OF3              0          FREE                        NO                       

[CONDUITS]
;;Name           From Node        To Node          Length     Roughness  InOffset   OutOffset  InitFlow   MaxFlow   
;;-------------- ---------------- ---------------- ---------- ---------- ---------- ---------- ---------- ----------
C1               J1               OF1              100.624    0.01       0          0          0          0         
C2               J2               J1               97.293     0.01       0          0          0          0         
C3               J3               J2               96.047     0.01       0          0          0          0         
C4               J4               J3               86.128     0.01       0          0          0          0         
C5               J5               J4               87.092     0.01       0          0          0          0         
C6               J6               J5               93.005     0.01       0          0          0          0         
C7               J7               J6               98.082     0.01       0          0          0          0         
C8               J8               J7               105.688    0.01       0          0          0          0         

[WEIRS]
;;Name           From Node        To Node          Type         CrestHt    Qcoeff     Gated    EndCon   EndCoeff   Surcharge  RoadWidth  RoadSurf   Coeff. Curve
;;-------------- ---------------- ---------------- ------------ ---------- ---------- -------- -------- ---------- ---------- ---------- ---------- ----------------
W1               J5               OF2              TRANSVERSE   0          1          NO       0        0          YES       
W2               J7               OF3              TRANSVERSE   5          3.33       NO       0        0          YES       

[XSECTIONS]
;;Link           Shape        Geom1            Geom2      Geom3      Geom4      Barrels    Culvert   
;;-------------- ------------ ---------------- ---------- ---------- ---------- ---------- ----------
C1               CIRCULAR     1                0          0          0          1                    
C2               CIRCULAR     1                0          0          0          1                    
C3               CIRCULAR     1                0          0          0          1                    
C4               CIRCULAR     1                0          0          0          1                    
C5               CIRCULAR     1                0          0          0          1                    
C6               CIRCULAR     1                0          0          0          1                    
C7               CIRCULAR     1                0          0          0          1                    
C8               CIRCULAR     1                0          0          0          1                    
W1               RECT_OPEN    20               0.5        0          0         
W2               RECT_OPEN    20               0.25       0          0         

[REPORT]
;;Reporting Options
INPUT      YES
SUBCATCHMENTS ALL
NODES ALL
LINKS ALL

[TAGS]

[MAP]
DIMENSIONS -771.225 -10.200 36.725 214.200
Units      Feet

[COORDINATES]
;;Node           X-Coord            Y-Coord           
;;-------------- ------------------ ------------------
J1               -99.500            15.000            
J2               -194.500           36.000            
J3               -287.500           60.000            
J4               -370.500           83.000            
J5               -454.500           106.000           
J6               -543.500           133.000           
J7               -635.500           167.000           
J8               -734.500           204.000           
OF1              0.000              0.000             
OF2              -444.500           135.000           
OF3              -657.056           108.614           

[VERTICES]
;;Link           X-Coord            Y-Coord           
;;-------------- ------------------ ------------------

