[TITLE]
;;Project Title/Notes

[OPTIONS]
;;Option            	Value
FLOW_UNITS          	CFS
INFILTRATION        	HORTON
FLOW_ROUTING        	KINWAVE
LINK_OFFSETS        	DEPTH
MIN_SLOPE           	0
ALLOW_PONDING       	NO
SKIP_STEADY_STATE   	NO

START_DATE          	01/01/1998
START_TIME          	00:00:00
REPORT_START_DATE   	01/01/1998
REPORT_START_TIME   	00:00:00
END_DATE            	01/01/1999
END_TIME            	00:00:00
SWEEP_START         	01/01
SWEEP_END           	12/31
DRY_DAYS            	0
REPORT_STEP         	00:15:00
WET_STEP            	00:05:00
DRY_STEP            	01:00:00
ROUTING_STEP        	0:00:30 

INERTIAL_DAMPING    	PARTIAL
NORMAL_FLOW_LIMITED 	BOTH
FORCE_MAIN_EQUATION 	H-W
VARIABLE_STEP       	0.75
LENGTHENING_STEP    	0
MIN_SURFAREA        	12.557
MAX_TRIALS          	8
HEAD_TOLERANCE      	0.005
SYS_FLOW_TOL        	5
LAT_FLOW_TOL        	5
MINIMUM_STEP        	0.5
THREADS             	1

[EVAPORATION]
;;Data Source   	Parameters
;;--------------	----------------
CONSTANT        	0.1
DRY_ONLY        	NO

[RAINGAGES]
;;Name          	Format   	Interval	SCF     	Source    
;;--------------	---------	------	------	----------
1               	INTENSITY	1:00    	1.0     	FILE      	"D:\SWMMandSoftware\SWMM5.013_June2018\EPASWMM5.1.013\Swmm5.1.013UpdateTests\DataFiles\sta310301.dat" 	*         	IN   

[SUBCATCHMENTS]
;;Name          	Rain Gage       	Outlet          	Area    	%Imperv 	Width   	%Slope  	CurbLen 	SnowPack        
;;--------------	----------------	----------------	--------	--------	--------	--------	--------	----------------
1               	1               	2               	5       	100     	500     	0.5     	0       	                

[SUBAREAS]
;;Subcatchment  	N-Imperv  	N-Perv    	S-Imperv  	S-Perv    	PctZero   	RouteTo   	PctRouted 
;;--------------	----------	----------	----------	----------	----------	----------	----------
1               	0.01      	0.1       	0.05      	0.05      	25        	OUTLET    

[INFILTRATION]
;;Subcatchment  	MaxRate   	MinRate   	Decay     	DryTime   	MaxInfil  
;;--------------	----------	----------	----------	----------	----------
1               	3.0       	0.5       	4         	7         	0         

[LID_CONTROLS]
;;Name          	Type/Layer	Parameters
;;--------------	----------	----------
PP              	PP
PP              	SURFACE   	0.0       	0.0       	0.1       	1.0       	5         
PP              	PAVEMENT  	6         	0.15      	0         	10        	1         	0         	0         
PP              	STORAGE   	12        	0.75      	0.5       	0         
PP              	DRAIN     	0         	0.5       	6         	6         	0         	0         	          

[LID_USAGE]
;;Subcatchment  	LID Process     	Number 	Area      	Width     	InitSat   	FromImp   	ToPerv    	RptFile                 	DrainTo         	FromPerv  
;;--------------	----------------	-------	----------	----------	----------	----------	----------	------------------------	----------------	----------
1               	PP              	1      	217800.00 	500       	0         	100       	0         	*				*               	0               

[JUNCTIONS]
;;Name          	Elevation 	MaxDepth  	InitDepth 	SurDepth  	Aponded   
;;--------------	----------	----------	----------	----------	----------
2               	0         	0         	0         	0         	0         

[REPORT]
;;Reporting Options
SUBCATCHMENTS	ALL
NODES	ALL
LINKS	ALL

[TAGS]

[MAP]
DIMENSIONS	0.000	0.000	10000.000	10000.000
Units     	None

[COORDINATES]
;;Node          	X-Coord           	Y-Coord           
;;--------------	------------------	------------------
2               	5132.939          	6041.359          

[VERTICES]
;;Link          	X-Coord           	Y-Coord           
;;--------------	------------------	------------------

[Polygons]
;;Subcatchment  	X-Coord           	Y-Coord           
;;--------------	------------------	------------------
1               	3463.811          	4874.446          
1               	1469.719          	4874.446          
1               	1454.948          	7060.561          
1               	3478.582          	7060.561          

[SYMBOLS]
;;Gage          	X-Coord           	Y-Coord           
;;--------------	------------------	------------------
1               	2341.211          	8641.064          

