[TITLE]
;;Project Title/Notes

[OPTIONS]
;;Option            	Value
FLOW_UNITS          	CFS
INFILTRATION        	HORTON
FLOW_ROUTING        	KINWAVE
LINK_OFFSETS        	DEPTH
MIN_SLOPE           	0
ALLOW_PONDING       	NO
SKIP_STEADY_STATE   	NO

START_DATE          	11/23/2017
START_TIME          	00:00:00
REPORT_START_DATE   	11/23/2017
REPORT_START_TIME   	00:00:00
END_DATE            	11/23/2017
END_TIME            	16:00:00
SWEEP_START         	01/01
SWEEP_END           	12/31
DRY_DAYS            	0
REPORT_STEP         	00:15:00
WET_STEP            	00:05:00
DRY_STEP            	01:00:00
ROUTING_STEP        	0:00:30 

INERTIAL_DAMPING    	PARTIAL
NORMAL_FLOW_LIMITED 	BOTH
FORCE_MAIN_EQUATION 	H-W
VARIABLE_STEP       	0.75
LENGTHENING_STEP    	0
MIN_SURFAREA        	12.557
MAX_TRIALS          	8
HEAD_TOLERANCE      	0.005
SYS_FLOW_TOL        	5
LAT_FLOW_TOL        	5
MINIMUM_STEP        	0.5
THREADS             	1

[EVAPORATION]
;;Data Source   	Parameters
;;--------------	----------------
CONSTANT        	0.0
DRY_ONLY        	NO

[RAINGAGES]
;;Name          	Format   	Interval	SCF     	Source    
;;--------------	---------	------	------	----------
1               	INTENSITY	0:15    	1.0     	TIMESERIES	Rainfall        

[SUBCATCHMENTS]
;;Name          	Rain Gage       	Outlet          	Area    	%Imperv 	Width   	%Slope  	CurbLen 	SnowPack        
;;--------------	----------------	----------------	--------	--------	--------	--------	--------	----------------
1               	1               	1               	5       	0       	140     	0.5     	0       	                
2               	1               	2               	5       	0       	140     	0.5     	0       	                
3               	1               	3               	5       	0       	140     	0.5     	0       	                
4               	1               	4               	5       	0       	140     	0.5     	0       	                

[SUBAREAS]
;;Subcatchment  	N-Imperv  	N-Perv    	S-Imperv  	S-Perv    	PctZero   	RouteTo   	PctRouted 
;;--------------	----------	----------	----------	----------	----------	----------	----------
1               	0.01      	0.1       	0.05      	0.05      	25        	OUTLET    
2               	0.01      	0.1       	0.05      	0.05      	25        	OUTLET    
3               	0.01      	0.1       	0.05      	0.05      	25        	OUTLET    
4               	0.01      	0.1       	0.05      	0.05      	25        	OUTLET    

[INFILTRATION]
;;Subcatchment  	MaxRate   	MinRate   	Decay     	DryTime   	MaxInfil  
;;--------------	----------	----------	----------	----------	----------
1               	1.2       	0.1       	2         	7         	0         
2               	1.2       	0.1       	2         	7         	0         
3               	1.2       	0.1       	2         	7         	0         
4               	1.2       	0.1       	2         	7         	0         

[TIMESERIES]
;;Name          	Date      	Time      	Value     
;;--------------	----------	----------	----------
Rainfall        	          	0:00      	0.009     
Rainfall        	          	0:15      	0.028     
Rainfall        	          	0:30      	0.046     
Rainfall        	          	0:45      	0.065     
Rainfall        	          	1:00      	0.083     
Rainfall        	          	1:15      	0.102     
Rainfall        	          	1:30      	0.120     
Rainfall        	          	1:45      	0.139     
Rainfall        	          	2:00      	0.157     
Rainfall        	          	2:15      	0.176     
Rainfall        	          	2:30      	0.194     
Rainfall        	          	2:45      	0.213     
Rainfall        	          	3:00      	0.231     
Rainfall        	          	3:15      	0.250     
Rainfall        	          	3:30      	0.269     
Rainfall        	          	3:45      	0.287     
Rainfall        	          	4:00      	0.306     
Rainfall        	          	4:15      	0.324     
Rainfall        	          	4:30      	0.328     
Rainfall        	          	4:45      	0.317     
Rainfall        	          	5:00      	0.306     
Rainfall        	          	5:15      	0.294     
Rainfall        	          	5:30      	0.283     
Rainfall        	          	5:45      	0.272     
Rainfall        	          	6:00      	0.261     
Rainfall        	          	6:15      	0.250     
Rainfall        	          	6:30      	0.239     
Rainfall        	          	6:45      	0.228     
Rainfall        	          	7:00      	0.217     
Rainfall        	          	7:15      	0.206     
Rainfall        	          	7:30      	0.194     
Rainfall        	          	7:45      	0.183     
Rainfall        	          	8:00      	0.172     
Rainfall        	          	8:15      	0.161     
Rainfall        	          	8:30      	0.150     
Rainfall        	          	8:45      	0.139     
Rainfall        	          	9:00      	0.128     
Rainfall        	          	9:15      	0.117     
Rainfall        	          	9:30      	0.106     
Rainfall        	          	9:45      	0.094     
Rainfall        	          	10:00     	0.083     
Rainfall        	          	10:15     	0.072     
Rainfall        	          	10:30     	0.061     
Rainfall        	          	10:45     	0.050     
Rainfall        	          	11:00     	0.039     
Rainfall        	          	11:15     	0.028     
Rainfall        	          	11:30     	0.017     
Rainfall        	          	11:45     	0.006     
Rainfall        	          	12:00     	0         

[PATTERNS]
;;Name          	Type      	Multipliers
;;--------------	----------	-----------
Pat1            	MONTHLY   	1.0  	1.0  	1.0  	1.0  	1.0  	1.0  
Pat1            	          	1.0  	1.0  	1.0  	1.0  	2    	1.0  
;
Pat2            	MONTHLY   	1.0  	1.0  	1.0  	1.0  	1.0  	1.0  
Pat2            	          	1.0  	1.0  	1.0  	1.0  	0.5  	1.0  

[REPORT]
;;Reporting Options
SUBCATCHMENTS	ALL
NODES	ALL
LINKS	ALL


[TAGS]

[MAP]
DIMENSIONS	0.000	0.000	10000.000	10000.000
Units     	None

[COORDINATES]
;;Node          	X-Coord           	Y-Coord           
;;--------------	------------------	------------------

[VERTICES]
;;Link          	X-Coord           	Y-Coord           
;;--------------	------------------	------------------

[Polygons]
;;Subcatchment  	X-Coord           	Y-Coord           
;;--------------	------------------	------------------
1               	1146.221          	6394.052          
2               	2286.245          	6418.835          
3               	3674.102          	6480.793          
4               	4727.385          	6517.968          

[SYMBOLS]
;;Gage          	X-Coord           	Y-Coord           
;;--------------	------------------	------------------
1               	3204.225          	7693.662          

