[TITLE]
;;Project Title/Notes

[OPTIONS]
;;Option             Value
FLOW_UNITS           CMS
INFILTRATION         HORTON
FLOW_ROUTING         DYNWAVE
LINK_OFFSETS         DEPTH
MIN_SLOPE            0
ALLOW_PONDING        NO
SKIP_STEADY_STATE    NO

START_DATE           06/14/2021
START_TIME           00:00:00
REPORT_START_DATE    06/14/2021
REPORT_START_TIME    00:00:00
END_DATE             06/14/2021
END_TIME             06:00:00
SWEEP_START          01/01
SWEEP_END            12/31
DRY_DAYS             0
REPORT_STEP          00:01:00
WET_STEP             00:05:00
DRY_STEP             01:00:00
ROUTING_STEP         0:00:30 

INERTIAL_DAMPING     PARTIAL
NORMAL_FLOW_LIMITED  BOTH
FORCE_MAIN_EQUATION  H-W
VARIABLE_STEP        0.75
LENGTHENING_STEP     0
MIN_SURFAREA         1.167
MAX_TRIALS           8
HEAD_TOLERANCE       0.0015
SYS_FLOW_TOL         5
LAT_FLOW_TOL         5
MINIMUM_STEP         0.5
THREADS              1

[EVAPORATION]
;;Data Source    Parameters
;;-------------- ----------------
CONSTANT         0.0
DRY_ONLY         NO

[JUNCTIONS]
;;Name           Elevation  MaxDepth   InitDepth  SurDepth   Aponded   
;;-------------- ---------- ---------- ---------- ---------- ----------
1                43.762     0          2.0          0          0         

[OUTFALLS]
;;Name           Elevation  Type       Stage Data       Gated    Route To        
;;-------------- ---------- ---------- ---------------- -------- ----------------
2                0          FIXED      2.0                NO                       

[CONDUITS]
;;Name           From Node        To Node          Length     Roughness  InOffset   OutOffset  InitFlow   MaxFlow   
;;-------------- ---------------- ---------------- ---------- ---------- ---------- ---------- ---------- ----------
1                1                2                10000      0.015      0          0          4.6981     0         

[XSECTIONS]
;;Link           Shape        Geom1            Geom2      Geom3      Geom4      Barrels    Culvert   
;;-------------- ------------ ---------------- ---------- ---------- ---------- ---------- ----------
1                CIRCULAR     2                0          0          0          1                    

[INFLOWS]
;;Node           Constituent      Time Series      Type     Mfactor  Sfactor  Baseline Pattern
;;-------------- ---------------- ---------------- -------- -------- -------- -------- --------
1                FLOW             ""               FLOW     1.0      1.0      10.6981  

[TIMESERIES]
;;Name           Date       Time       Value     
;;-------------- ---------- ---------- ----------
630016810                   0.0        4.353e-01 
630016810                   1          1.000e-01 
630016810                   2          2.495e-01 
630016810                   3          5.017e-01 
630016810                   4          8.114e-01 
630016810                   5          1.075e+00 
630016810                   6          1.201e+00 
630016810                   7          1.185e+00 
630016810                   8          1.095e+00 
630016810                   9          1.002e+00 
630016810                   10         9.364e-01 
630016810                   11         8.508e-01 
630016810                   12         8.070e-01 
630016810                   13         7.074e-01 
630016810                   14         6.583e-01 
630016810                   15         5.727e-01 
630016810                   16         5.352e-01 
630016810                   17         4.659e-01 
630016810                   18         4.339e-01 
630016810                   19         3.503e-01 
630016810                   20         3.267e-01 
630016810                   21         2.366e-01 
630016810                   22         2.213e-01 
630016810                   23         1.228e-01 
630016810                   24         2.855e-01 
630016810                   25         5.130e-01 
630016810                   26         9.134e-01 
630016810                   27         1.495e+00 
630016810                   28         2.204e+00 
630016810                   29         2.938e+00 
630016810                   30         3.602e+00 
630016810                   31         4.138e+00 
630016810                   32         4.525e+00 
630016810                   33         4.764e+00 
630016810                   34         4.692e+00 
630016810                   35         4.457e+00 
630016810                   36         4.144e+00 
630016810                   37         3.783e+00 
630016810                   38         3.412e+00 
630016810                   39         3.059e+00 
630016810                   40         2.735e+00 
630016810                   41         2.445e+00 
630016810                   42         2.188e+00 
630016810                   43         1.961e+00 
630016810                   44         1.761e+00 
630016810                   45         1.582e+00 
630016810                   46         1.420e+00 
630016810                   47         1.273e+00 
630016810                   48         1.139e+00 

[REPORT]
;;Reporting Options
INPUT      NO
CONTROLS   NO
SUBCATCHMENTS ALL
NODES ALL
LINKS ALL

[TAGS]

[MAP]
DIMENSIONS 0.000 0.000 10000.000 10000.000
Units      None

[COORDINATES]
;;Node           X-Coord            Y-Coord           
;;-------------- ------------------ ------------------
1                -1992.593          5881.481          
2                -303.704           5896.296          

[VERTICES]
;;Link           X-Coord            Y-Coord           
;;-------------- ------------------ ------------------

