[TITLE]
;;Project Title/Notes

[OPTIONS]
;;Option             Value
FLOW_UNITS           CMS
INFILTRATION         HORTON
FLOW_ROUTING         DYNWAVE
LINK_OFFSETS         ELEVATION
MIN_SLOPE            0
ALLOW_PONDING        NO
SKIP_STEADY_STATE    NO

START_DATE           06/22/2023
START_TIME           00:00:00
REPORT_START_DATE    06/22/2023
REPORT_START_TIME    00:00:00
END_DATE             06/22/2023
END_TIME             04:00:00
SWEEP_START          01/01
SWEEP_END            12/31
DRY_DAYS             0
REPORT_STEP          00:00:20
WET_STEP             00:05:00
DRY_STEP             00:05:00
ROUTING_STEP         5
RULE_STEP            00:00:00

INERTIAL_DAMPING     NONE
NORMAL_FLOW_LIMITED  BOTH
FORCE_MAIN_EQUATION  H-W
SURCHARGE_METHOD     Slot
VARIABLE_STEP        0.75
LENGTHENING_STEP     0
MIN_SURFAREA         0
MAX_TRIALS           8
HEAD_TOLERANCE       0.0015
SYS_FLOW_TOL         5
LAT_FLOW_TOL         5
MINIMUM_STEP         0.5
THREADS              4

[EVAPORATION]
;;Data Source    Parameters
;;-------------- ----------------
CONSTANT         0.0
DRY_ONLY         NO

[JUNCTIONS]
;;Name           Elevation  MaxDepth   InitDepth  SurDepth   Aponded   
;;-------------- ---------- ---------- ---------- ---------- ----------
C10-DS10X-TC     -36.568    7.2        0          999        0         
C11-DS11X-TC     -37.475    7.2        0          999        0         
C12-DS12X-TC     -38.007    7.2        0          999        0         
C14-DS14X-TC     -38.923    7.2        0          999        0         
C18-DS18X-TC     -41.237    7.2        0          999        0         
C19-DS19X-TC     -41.142    7.2        0          999        0         
C21-TC           -42.087    7.2        0          999        0         
C22-DS22X-TC     -43.942    7.2        0          999        0         
C26-DS26X-TC     -44.973    7.2        0          999        0         
C27-DS27X-TC     -45.561    7.2        0          999        0         
C28-DS28X-TC     -48.543    7.2        0          999        0         
C30-DS30X-TC     -51.672    7.2        0          999        0         
C31-DS31X-TC     -54.212    7.2        0          999        0         
C6-DS06X-TC      -32.035    7.2        0          999        0         
C7a-DS07A-TC     -33.935    7.2        0          999        0         
C8a-DS08A-TC     -34.267    7.2        0          999        0         
C9-DS09X-TC      -35.23     7.2        0          999        0         
DummyMH          -64.799    7.2        0          999        0         
DummyMH1.1       -60.729    7.2        0          999        0         

[OUTFALLS]
;;Name           Elevation  Type       Stage Data       Gated    Route To        
;;-------------- ---------- ---------- ---------------- -------- ----------------
BecktonOverflow  0          FREE                        NO                       

[STORAGE]
;;Name           Elev.    MaxDepth   InitDepth  Shape       Curve Name/Params            SurDepth Fevap    Psi      Ksat     IMD     
;;-------------- -------- ---------- ---------- ----------- ---------------------------- -------- -------- -------- -------- --------
Abbey_Mills_Shaft_F -59.8 67         0          FUNCTIONAL  0         0         50.2     0        0       
Beckton_Drive_Shaft -66.777 7.2      0          FUNCTIONAL  0         0         490.6    999      0       
Beckton_Overflow_Shaft -66.85 84     0          FUNCTIONAL  0         0         240.4    0        0       
BecktonConfluenceShaft -72 11        0          FUNCTIONAL  0         0         490.6    999      0       
C10-DS10X-Lots_Road_PS -34.463 33    0          FUNCTIONAL  0         0         113.1    0        0       
C11-DS11X-Church_St -34.457 35       0          FUNCTIONAL  0         0         28.3     0        0       
C12-DS12X-Queen_St -35.148 35        0          FUNCTIONAL  0         0         28.3     0        0       
C13-DS13X-Smith_St -15.14 15         0          FUNCTIONAL  0         0         28.3     0        0       
C14-DS14X-Ranelagh -36.887 34        0          FUNCTIONAL  0         0         113.1    999      0       
C16-DS16X-Heathwall_PS -37.943 37    0          FUNCTIONAL  0         0         176.6    0        0       
C18-DS18X-Kings_Scholars_Pond -38.031 37 0      FUNCTIONAL  0         0         38.5     0        0       
C19-DS19X-Clapham_SR -36.664 36      0          FUNCTIONAL  0         0         78.5     0        0       
C1-DS01X-Acton_SR -18.3   28         0          FUNCTIONAL  0         0         63.6     0        0       
C20-DS20X-Brixton_SR -23.466 22      0          FUNCTIONAL  0         0         50.3     0        0       
C22-DS22X-Regent_St -41.15 39        0          FUNCTIONAL  0         0         50.3     0        0       
C23-DS23X-Northumberland_St -10.8 8  0          FUNCTIONAL  0         0         28.3     0        0       
C26-DS26X-Essex_St -42.825 40        0          FUNCTIONAL  0         0         28.3     0        0       
C27-DS27X-Fleet_Main -43.93 42       0          FUNCTIONAL  0         0         153.9    0        0       
C28-DS28X-Shad_Thames_PS -45.778 42  0          FUNCTIONAL  0         0         38.5     0        0       
C29-DS29X-North_East_SR -17 16       0          FUNCTIONAL  0         0         113.1    0        0       
C2-DS02X-Stamford_Brook_SR -23.526 24 0         FUNCTIONAL  0         0         113.1    0        0       
C30-DS30X-Holloway_SR -48.227 48     0          FUNCTIONAL  0         0         63.6     0        0       
C31-DS31X-Earl_PS -51.023 48         0          FUNCTIONAL  0         0         78.5     0        0       
C32-DS32X-Deptford_SR -20.822 20     0          FUNCTIONAL  0         0         78.5     0        0       
C33-DS33X-Greenwich_PS -16.4 18      0          FUNCTIONAL  0         0         113.1    0        0       
C34-DS34X-Charlton_SR -60.667 58     0          FUNCTIONAL  0         0         490.6    0        0       
C3-DS03X-North_West_SR -21.6 15      0          FUNCTIONAL  0         0         63.6     0        0       
C4-DS04X-Hammersmith_PS -19.8 11     0          FUNCTIONAL  0         0         113.1    0        0       
C5-DS05X-West_Putney_SR -31 32       0          FUNCTIONAL  0         0         490.6    0        0       
C6-DS06X-Putney_Bridge -28.725 31    0          FUNCTIONAL  0         0         28.3     0        0       
C7a-DS07A-Frogmore_SR_Bell -28.808 30 0         FUNCTIONAL  0         0         44.2     0        0       
C7b-DS07B-Frogmore_SR_Buck -26.447 29 0         FUNCTIONAL  0         0         44.2     0        0       
C8a-DS08A-Jews_Row_&_Falcon_Br -31.88 31 0      FUNCTIONAL  0         0         113.1    0        0       
C9-DS09X-Falcon_Brook_PS -31.795 31  0          FUNCTIONAL  0         0         44.2     0        0       
CONVOYS_WHARF    -55.139  66         0          FUNCTIONAL  0         0         490.6    0        0       
MAIN_TUNNEL_SHAFT -40.214 7.2        0          FUNCTIONAL  0         0         490.6    999      0       
ShaftD           -75.6    85.6       0          FUNCTIONAL  0         0         19.6     0        0       

[CONDUITS]
;;Name           From Node        To Node          Length     Roughness  InOffset   OutOffset  InitFlow   MaxFlow   
;;-------------- ---------------- ---------------- ---------- ---------- ---------- ---------- ---------- ----------
Abbey_Mills_Shaft_F.1 Abbey_Mills_Shaft_F DummyMH  3000.4     0.013      -59.8      -64.799    0          0         
BecktonConfluenceShaft.1 BecktonConfluenceShaft Beckton_Overflow_Shaft 837.8 0.013 -67.86 -66.85 0        0         
BecktonConfluenceShaft.2 BecktonConfluenceShaft ShaftD 60     0.013      -72        -74        0          0         
Becton_Drive_Shaft.1 Beckton_Drive_Shaft Beckton_Overflow_Shaft 60.4 0.013 -66.777  -66.85     0          0         
C10-DS10X-Lots_Road_PS.1 C10-DS10X-Lots_Road_PS C10-DS10X-TC 26.4 0.013  -34.463    -34.595    0          0         
C10-DS10X-TC.1   C10-DS10X-TC     C11-DS11X-TC     749.3      0.013      -36.568    -37.475    0          0         
C11-DS11X-Church_St.1 C11-DS11X-Church_St C11-DS11X-TC 121.6  0.013      -34.457    -35.065    0          0         
C11-DS11X-TC.1   C11-DS11X-TC     C12-DS12X-TC     440.1      0.013      -37.475    -38.007    0          0         
C12-DS12X-Queen_St.1 C12-DS12X-Queen_St C12-DS12X-TC 97.5     0.013      -35.148    -35.635    0          0         
C12-DS12X-TC.1   C12-DS12X-TC     C14-DS14X-TC     756.8      0.013      -38.007    -38.923    0          0         
C13-DS13X-Smith_St.1 C13-DS13X-Smith_St C14-DS14X-Ranelagh 215.4 0.013   -15.14     -16.217    0          0         
C14-DS14X-Ranelagh.1 C14-DS14X-Ranelagh C14-DS14X-TC 95.7     0.013      -36.887    -37.366    0          0         
C14-DS14X-TC.1   C14-DS14X-TC     MAIN_TUNNEL_SHAFT 1067.4    0.013      -38.923    -40.214    0          0         
C16-DS16X-Heathwall_PS.2 C16-DS16X-Heathwall_PS MAIN_TUNNEL_SHAFT 201.3 0.013 -37.943 -38.948  0          0         
C18-DS18X-Kings_Scholars_Pond.1 C18-DS18X-Kings_Scholars_Pond C18-DS18X-TC 269.4 0.013 -38.031 -39.378 0  0         
C18-DS18X-TC.2   C18-DS18X-TC     C21-TC           702.5      0.013      -41.237    -42.087    0          0         
C19-DS19X-Clapham_SR.1 C19-DS19X-Clapham_SR C19-DS19X-TC 581.7 0.013     -36.664    -39.573    0          0         
C19-DS19X-TC.2   C19-DS19X-TC     C18-DS18X-TC     78.7       0.013      -41.142    -41.237    0          0         
C1-DS01X-Acton_SR.2 C1-DS01X-Acton_SR C2-DS02X-Stamford_Brook_SR 927.7 0.013 -18.3  -22.94     0          0         
C20-DS20X-Brixton_SR.2 C20-DS20X-Brixton_SR C19-DS19X-Clapham_SR 296.8 0.013 -23.466 -24.95    0          0         
C21-TC.2         C21-TC           C22-DS22X-TC     1533.2     0.013      -42.087    -43.942    0          0         
C22-DS22X-Regent_St.1 C22-DS22X-Regent_St C22-DS22X-TC 225.8  0.013      -41.15     -42.279    0          0         
C22-DS22X-TC.2   C22-DS22X-TC     C26-DS26X-TC     852.2      0.013      -43.942    -44.973    0          0         
C23-DS23X-Northumberland_St.2 C23-DS23X-Northumberland_St C22-DS22X-Regent_St 69.1 0.013 -10.8 -11.18 0   0         
C26-DS26X-Essex_St.1 C26-DS26X-Essex_St C26-DS26X-TC 108.8    0.013      -42.825    -43.369    0          0         
C26-DS26X-TC.2   C26-DS26X-TC     C27-DS27X-TC     485.4      0.013      -44.973    -45.561    0          0         
C27-DS27X-Fleet_Main.1 C27-DS27X-Fleet_Main C27-DS27X-TC 101.7 0.013     -43.93     -44.44     0          0         
C27-DS27X-TC.2   C27-DS27X-TC     C28-DS28X-TC     2465.1     0.013      -45.561    -48.543    0          0         
C28-DS28X-Shad_Thames_PS.1 C28-DS28X-Shad_Thames_PS C28-DS28X-TC 33.1 0.013 -45.778 -45.943    0          0         
C28-DS28X-TC.2   C28-DS28X-TC     C30-DS30X-TC     2586.2     0.013      -48.543    -51.672    0          0         
C29-DS29X-North_East_SR.1 C29-DS29X-North_East_SR C30-DS30X-Holloway_SR 806 0.013 -17 -21.03   0          0         
C2-DS02X-Stamford_Brook_SR.1 C2-DS02X-Stamford_Brook_SR C5-DS05X-West_Putney_SR 2345.3 0.013 -23.526 -30.96 0 0         
C30-DS30X-Holloway_SR.2 C30-DS30X-Holloway_SR C30-DS30X-TC 328.8 0.013   -48.227    -49.87     0          0         
C30-DS30X-TC.2   C30-DS30X-TC     C31-DS31X-TC     2100       0.013      -51.672    -54.212    0          0         
C31-DS31X-Earl_PS.2 C31-DS31X-Earl_PS C31-DS31X-TC 117.9      0.013      -51.023    -51.61     0          0         
C32-DS32X-Deptford_SR.1 C32-DS32X-Deptford_SR CONVOYS_WHARF 384.2 0.013  -20.822    -22.743    0          0         
C33-DS33X-Greenwich_PS.1 C33-DS33X-Greenwich_PS C32-DS32X-Deptford_SR 884.4 0.013 -16.4 -20.822 0         0         
C34-DS34X-Charlton_SR.1 C34-DS34X-Charlton_SR DummyMH1.1 51.3 0.013      -60.667    -60.729    0          0         
C3-DS03X-North_West_SR.1 C3-DS03X-North_West_SR C2-DS02X-Stamford_Brook_SR 385.3 0.013 -21.6 -23.526 0    0         
C4-DS04X-Hammersmith_PS.1 C4-DS04X-Hammersmith_PS C3-DS03X-North_West_SR 359.3 0.013 -19.8 -21.6 0        0         
C5-DS05X-West_Putney_SR.1 C5-DS05X-West_Putney_SR C6-DS06X-TC 855.1 0.013 -31       -32.035    0          0         
C6-DS06X-Putney_Bridge.1 C6-DS06X-Putney_Bridge C6-DS06X-TC 105.4 0.013  -28.725    -29.252    0          0         
C6-DS06X-TC.1    C6-DS06X-TC      C7a-DS07A-TC     1570.5     0.013      -32.035    -33.935    0          0         
C7a-DS07A-Frogmore_SR_-_Bell.1 C7a-DS07A-Frogmore_SR_Bell C7a-DS07A-TC 543.5 0.013 -28.808 -31.526 0      0         
C7a-DS07A-TC.1   C7a-DS07A-TC     C8a-DS08A-TC     274.8      0.013      -33.935    -34.267    0          0         
C7b-DS07B-Frogmore_SR_-_Buck.1 C7b-DS07B-Frogmore_SR_Buck C7a-DS07A-Frogmore_SR_Bell 472.3 0.013 -26.447 -28.808 0 0         
C8a-DS08A-Jews_Row_&_Falcon_Br.1 C8a-DS08A-Jews_Row_&_Falcon_Br C8a-DS08A-TC 100.3 0.013 -31.88 -32.382 0 0         
C8a-DS08A-TC.1   C8a-DS08A-TC     C9-DS09X-TC      795.6      0.013      -34.267    -35.23     0          0         
C9-DS09X-Falcon_Brook_PS.1 C9-DS09X-Falcon_Brook_PS C9-DS09X-TC 223.9 0.013 -31.795 -32.912    0          0         
C9-DS09X-TC.1    C9-DS09X-TC      C10-DS10X-TC     1106.4     0.013      -35.23     -36.568    0          0         
CONVOYS_WHARF.1  CONVOYS_WHARF    C31-DS31X-TC     766.3      0.013      -55.139    -54.212    0          0         
CONVOYS_WHARF.2  CONVOYS_WHARF    C34-DS34X-Charlton_SR 4568.8 0.013     -55.139    -60.667    0          0         
DummyMH.1        DummyMH          BecktonConfluenceShaft 3061.5 0.013    -64.799    -67.86     0          0         
DummyMH1.1       DummyMH1.1       Beckton_Drive_Shaft 4999    0.013      -60.729    -66.777    0          0         
MAIN_TUNNEL_SHAFT.1 MAIN_TUNNEL_SHAFT C19-DS19X-TC 766.7      0.013      -40.214    -41.142    0          0         

[WEIRS]
;;Name           From Node        To Node          Type         CrestHt    Qcoeff     Gated    EndCon   EndCoeff   Surcharge  RoadWidth  RoadSurf   Coeff. Curve
;;-------------- ---------------- ---------------- ------------ ---------- ---------- -------- -------- ---------- ---------- ---------- ---------- ----------------
BecktonReliefWeir Beckton_Overflow_Shaft BecktonOverflow TRANSVERSE 4.2    3.33       NO       0        0          YES       

[XSECTIONS]
;;Link           Shape        Geom1            Geom2      Geom3      Geom4      Barrels    Culvert   
;;-------------- ------------ ---------------- ---------- ---------- ---------- ---------- ----------
Abbey_Mills_Shaft_F.1 CIRCULAR 7.2             0          0          0          1                    
BecktonConfluenceShaft.1 CIRCULAR 7.2          0          0          0          1                    
BecktonConfluenceShaft.2 CIRCULAR 2.8          0          0          0          1                    
Becton_Drive_Shaft.1 CIRCULAR 7.2              0          0          0          1                    
C10-DS10X-Lots_Road_PS.1 CIRCULAR 2.5          0          0          0          1                    
C10-DS10X-TC.1   CIRCULAR     7.2              0          0          0          1                    
C11-DS11X-Church_St.1 CIRCULAR 1.5             0          0          0          1                    
C11-DS11X-TC.1   CIRCULAR     7.2              0          0          0          1                    
C12-DS12X-Queen_St.1 CIRCULAR 1.5              0          0          0          1                    
C12-DS12X-TC.1   CIRCULAR     7.2              0          0          0          1                    
C13-DS13X-Smith_St.1 CIRCULAR 1.8              0          0          0          1                    
C14-DS14X-Ranelagh.1 CIRCULAR 3                0          0          0          1                    
C14-DS14X-TC.1   CIRCULAR     7.2              0          0          0          1                    
C16-DS16X-Heathwall_PS.2 CIRCULAR 3.4          0          0          0          1                    
C18-DS18X-Kings_Scholars_Pond.1 CIRCULAR 2     0          0          0          1                    
C18-DS18X-TC.2   CIRCULAR     7.2              0          0          0          1                    
C19-DS19X-Clapham_SR.1 CIRCULAR 2.6            0          0          0          1                    
C19-DS19X-TC.2   CIRCULAR     7.2              0          0          0          1                    
C1-DS01X-Acton_SR.2 CIRCULAR  7.2              0          0          0          1                    
C20-DS20X-Brixton_SR.2 CIRCULAR 2.6            0          0          0          1                    
C21-TC.2         CIRCULAR     7.2              0          0          0          1                    
C22-DS22X-Regent_St.1 CIRCULAR 2               0          0          0          1                    
C22-DS22X-TC.2   CIRCULAR     7.2              0          0          0          1                    
C23-DS23X-Northumberland_St.2 CIRCULAR 2       0          0          0          1                    
C26-DS26X-Essex_St.1 CIRCULAR 2                0          0          0          1                    
C26-DS26X-TC.2   CIRCULAR     7.2              0          0          0          1                    
C27-DS27X-Fleet_Main.1 CIRCULAR 3              0          0          0          1                    
C27-DS27X-TC.2   CIRCULAR     7.2              0          0          0          1                    
C28-DS28X-Shad_Thames_PS.1 CIRCULAR 2          0          0          0          1                    
C28-DS28X-TC.2   CIRCULAR     7.2              0          0          0          1                    
C29-DS29X-North_East_SR.1 CIRCULAR 3.6         0          0          0          1                    
C2-DS02X-Stamford_Brook_SR.1 CIRCULAR 7.2      0          0          0          1                    
C30-DS30X-Holloway_SR.2 CIRCULAR 3.6           0          0          0          1                    
C30-DS30X-TC.2   CIRCULAR     7.2              0          0          0          1                    
C31-DS31X-Earl_PS.2 CIRCULAR  2                0          0          0          1                    
C32-DS32X-Deptford_SR.1 CIRCULAR 3.6           0          0          0          1                    
C33-DS33X-Greenwich_PS.1 CIRCULAR 3.6          0          0          0          1                    
C34-DS34X-Charlton_SR.1 CIRCULAR 7.2           0          0          0          1                    
C3-DS03X-North_West_SR.1 CIRCULAR 3.4          0          0          0          1                    
C4-DS04X-Hammersmith_PS.1 CIRCULAR 3.4         0          0          0          1                    
C5-DS05X-West_Putney_SR.1 CIRCULAR 7.2         0          0          0          1                    
C6-DS06X-Putney_Bridge.1 CIRCULAR 1.5          0          0          0          1                    
C6-DS06X-TC.1    CIRCULAR     7.2              0          0          0          1                    
C7a-DS07A-Frogmore_SR_-_Bell.1 CIRCULAR 2      0          0          0          1                    
C7a-DS07A-TC.1   CIRCULAR     7.2              0          0          0          1                    
C7b-DS07B-Frogmore_SR_-_Buck.1 CIRCULAR 2      0          0          0          1                    
C8a-DS08A-Jews_Row_&_Falcon_Br.1 CIRCULAR 3    0          0          0          1                    
C8a-DS08A-TC.1   CIRCULAR     7.2              0          0          0          1                    
C9-DS09X-Falcon_Brook_PS.1 CIRCULAR 2          0          0          0          1                    
C9-DS09X-TC.1    CIRCULAR     7.2              0          0          0          1                    
CONVOYS_WHARF.1  CIRCULAR     7.2              0          0          0          1                    
CONVOYS_WHARF.2  CIRCULAR     7.2              0          0          0          1                    
DummyMH.1        CIRCULAR     7.2              0          0          0          1                    
DummyMH1.1       CIRCULAR     7.2              0          0          0          1                    
MAIN_TUNNEL_SHAFT.1 CIRCULAR  7.2              0          0          0          1                    
BecktonReliefWeir RECT_OPEN   5                55         0          0         

[LOSSES]
;;Link           Kentry     Kexit      Kavg       Flap Gate  Seepage   
;;-------------- ---------- ---------- ---------- ---------- ----------

[INFLOWS]
;;Node           Constituent      Time Series      Type     Mfactor  Sfactor  Baseline Pattern
;;-------------- ---------------- ---------------- -------- -------- -------- -------- --------
Abbey_Mills_Shaft_F FLOW             Abbey_Mills_Shaft_F FLOW     1.0      1.0                       
C10-DS10X-Lots_Road_PS FLOW             C10-DS10X-Lots_Road_PS FLOW     1.0      1.0                       
C11-DS11X-Church_St FLOW             C11-DS11X-Church_St FLOW     1.0      1.0                       
C12-DS12X-Queen_St FLOW             C12-DS12X-Queen_St FLOW     1.0      1.0                       
C13-DS13X-Smith_St FLOW             C13-DS13X-Smith_St FLOW     1.0      1.0                       
C14-DS14X-Ranelagh FLOW             C14-DS14X-Ranelagh FLOW     1.0      1.0                       
C16-DS16X-Heathwall_PS FLOW             C16-DS16X-Heathwall_PS FLOW     1.0      1.0                       
C18-DS18X-Kings_Scholars_Pond FLOW             C18-DS18X-Kings_Scholars_Pond FLOW     1.0      1.0                       
C19-DS19X-Clapham_SR FLOW             C19-DS19X-Clapham_SR FLOW     1.0      1.0                       
C1-DS01X-Acton_SR FLOW             C1-DS01X-Acton_SR FLOW     1.0      1.0                       
C20-DS20X-Brixton_SR FLOW             C20-DS20X-Brixton_SR FLOW     1.0      1.0                       
C22-DS22X-Regent_St FLOW             C22-DS22X-Regent_St FLOW     1.0      1.0                       
C23-DS23X-Northumberland_St FLOW             C23-DS23X_Northumberland_St FLOW     1.0      1                         
C26-DS26X-Essex_St FLOW             C26-DS26X-Essex_St FLOW     1.0      1.0                       
C27-DS27X-Fleet_Main FLOW             C27-DS27X-Fleet_Main FLOW     1.0      1.0                       
C28-DS28X-Shad_Thames_PS FLOW             C28-DS28X-Shad_Thames_PS FLOW     1.0      1.0                       
C29-DS29X-North_East_SR FLOW             C29-DS29X-North_East_SR FLOW     1.0      1.0                       
C2-DS02X-Stamford_Brook_SR FLOW             C2-DS02X-Stamford_Brook_SR FLOW     1.0      1.0                       
C30-DS30X-Holloway_SR FLOW             C30-DS30X-Holloway_SR FLOW     1.0      1.0                       
C31-DS31X-Earl_PS FLOW             C31-DS31X-Earl_PS FLOW     1.0      1.0                       
C32-DS32X-Deptford_SR FLOW             C32-DS32X-Deptford_SR FLOW     1.0      1.0                       
C33-DS33X-Greenwich_PS FLOW             C33-DS33X-Greenwich_PS FLOW     1.0      1.0                       
C34-DS34X-Charlton_SR FLOW             Dummy_MH1.1      FLOW     1.0      1                         
C3-DS03X-North_West_SR FLOW             C3-DS03X-North_West_SR FLOW     1.0      1.0                       
C4-DS04X-Hammersmith_PS FLOW             C4-DS04X-Hammersmith_PS FLOW     1.0      1.0                       
C5-DS05X-West_Putney_SR FLOW             C5-DS05X-West_Putney_SR FLOW     1.0      1.0                       
C6-DS06X-Putney_Bridge FLOW             C6-DS06X-Putney_Bridge FLOW     1.0      1.0                       
C7a-DS07A-Frogmore_SR_Bell FLOW             C7a-DS07A-Frogmore_SR_Bell FLOW     1.0      1.0                       
C7b-DS07B-Frogmore_SR_Buck FLOW             C7b-DS07B-Frogmore_SR_Buck FLOW     1.0      1.0                       
C8a-DS08A-Jews_Row_&_Falcon_Br FLOW             C8a-DS08A-Jews_Row_&_Falcon_Br FLOW     1.0      1.0                       
C9-DS09X-Falcon_Brook_PS FLOW             C9-DS09X-Falcon_Brook_PS FLOW     1.0      1.0                       

[TIMESERIES]
;;Name           Date       Time       Value     
;;-------------- ---------- ---------- ----------
Abbey_Mills_Shaft_F 06/22/2023 00:05      0         
Abbey_Mills_Shaft_F 06/22/2023 00:10      0         
Abbey_Mills_Shaft_F 06/22/2023 00:15      0         
Abbey_Mills_Shaft_F 06/22/2023 00:20      0         
Abbey_Mills_Shaft_F 06/22/2023 00:25      0         
Abbey_Mills_Shaft_F 06/22/2023 00:30      0         
Abbey_Mills_Shaft_F 06/22/2023 00:35      0         
Abbey_Mills_Shaft_F 06/22/2023 00:40      0         
Abbey_Mills_Shaft_F 06/22/2023 00:45      0         
Abbey_Mills_Shaft_F 06/22/2023 00:50      0         
Abbey_Mills_Shaft_F 06/22/2023 00:55      9.59      
Abbey_Mills_Shaft_F 06/22/2023 01:00      12.71     
Abbey_Mills_Shaft_F 06/22/2023 01:05      16.06     
Abbey_Mills_Shaft_F 06/22/2023 01:10      19.8      
Abbey_Mills_Shaft_F 06/22/2023 01:15      44.49     
Abbey_Mills_Shaft_F 06/22/2023 01:20      52.82     
Abbey_Mills_Shaft_F 06/22/2023 01:25      54.8      
Abbey_Mills_Shaft_F 06/22/2023 01:30      54.8      
Abbey_Mills_Shaft_F 06/22/2023 01:35      54.8      
Abbey_Mills_Shaft_F 06/22/2023 01:40      54.8      
Abbey_Mills_Shaft_F 06/22/2023 01:45      54.8      
Abbey_Mills_Shaft_F 06/22/2023 01:50      54.8      
Abbey_Mills_Shaft_F 06/22/2023 01:55      54.8      
Abbey_Mills_Shaft_F 06/22/2023 02:00      54.8      
Abbey_Mills_Shaft_F 06/22/2023 02:05      54.8      
Abbey_Mills_Shaft_F 06/22/2023 02:10      54.8      
Abbey_Mills_Shaft_F 06/22/2023 02:15      54.8      
Abbey_Mills_Shaft_F 06/22/2023 02:20      54.8      
Abbey_Mills_Shaft_F 06/22/2023 02:25      59.6      
Abbey_Mills_Shaft_F 06/22/2023 02:30      54.8      
Abbey_Mills_Shaft_F 06/22/2023 02:35      55.73     
Abbey_Mills_Shaft_F 06/22/2023 02:40      54.8      
Abbey_Mills_Shaft_F 06/22/2023 02:45      54.8      
Abbey_Mills_Shaft_F 06/22/2023 02:50      54.8      
Abbey_Mills_Shaft_F 06/22/2023 02:55      54.8      
Abbey_Mills_Shaft_F 06/22/2023 03:00      54.8      
Abbey_Mills_Shaft_F 06/22/2023 03:05      54.8      
Abbey_Mills_Shaft_F 06/22/2023 03:10      54.8      
Abbey_Mills_Shaft_F 06/22/2023 03:15      54.8      
Abbey_Mills_Shaft_F 06/22/2023 03:20      54.8      
Abbey_Mills_Shaft_F 06/22/2023 03:25      54.8      
Abbey_Mills_Shaft_F 06/22/2023 03:30      50.49     
Abbey_Mills_Shaft_F 06/22/2023 03:35      31.77     
Abbey_Mills_Shaft_F 06/22/2023 03:40      31.12     
Abbey_Mills_Shaft_F 06/22/2023 03:45      30.5      
Abbey_Mills_Shaft_F 06/22/2023 03:50      30.33     
Abbey_Mills_Shaft_F 06/22/2023 03:55      30.83     
Abbey_Mills_Shaft_F 06/22/2023 04:00      30.3      
Abbey_Mills_Shaft_F 06/22/2023 04:05      29.58     
Abbey_Mills_Shaft_F 06/22/2023 04:10      29.15     
Abbey_Mills_Shaft_F 06/22/2023 04:15      28.87     
Abbey_Mills_Shaft_F 06/22/2023 04:20      28.66     
Abbey_Mills_Shaft_F 06/22/2023 04:25      28.42     
Abbey_Mills_Shaft_F 06/22/2023 04:30      28.18     
Abbey_Mills_Shaft_F 06/22/2023 04:35      27.92     
Abbey_Mills_Shaft_F 06/22/2023 04:40      27.65     
Abbey_Mills_Shaft_F 06/22/2023 04:45      27.36     
Abbey_Mills_Shaft_F 06/22/2023 04:50      27.09     
Abbey_Mills_Shaft_F 06/22/2023 04:55      26.83     
Abbey_Mills_Shaft_F 06/22/2023 05:00      26.59     
Abbey_Mills_Shaft_F 06/22/2023 05:05      26.37     
Abbey_Mills_Shaft_F 06/22/2023 05:10      26.28     
Abbey_Mills_Shaft_F 06/22/2023 05:15      26.21     
Abbey_Mills_Shaft_F 06/22/2023 05:20      26.13     
Abbey_Mills_Shaft_F 06/22/2023 05:25      26.05     
Abbey_Mills_Shaft_F 06/22/2023 05:30      25.97     
Abbey_Mills_Shaft_F 06/22/2023 05:35      25.87     
Abbey_Mills_Shaft_F 06/22/2023 05:40      25.77     
Abbey_Mills_Shaft_F 06/22/2023 05:45      25.67     
Abbey_Mills_Shaft_F 06/22/2023 05:50      22.26     
Abbey_Mills_Shaft_F 06/22/2023 05:55      17.54     
Abbey_Mills_Shaft_F 06/22/2023 06:00      14        
Abbey_Mills_Shaft_F 06/22/2023 06:05      11.35     
Abbey_Mills_Shaft_F 06/22/2023 06:10      9.38      
Abbey_Mills_Shaft_F 06/22/2023 06:15      7.9       
Abbey_Mills_Shaft_F 06/22/2023 06:20      7.03      
Abbey_Mills_Shaft_F 06/22/2023 06:25      7.27      
Abbey_Mills_Shaft_F 06/22/2023 06:30      7.74      
Abbey_Mills_Shaft_F 06/22/2023 06:35      7.87      
Abbey_Mills_Shaft_F 06/22/2023 06:40      8.04      
Abbey_Mills_Shaft_F 06/22/2023 06:45      7.91      
Abbey_Mills_Shaft_F 06/22/2023 06:50      7.38      
Abbey_Mills_Shaft_F 06/22/2023 06:55      6.95      
Abbey_Mills_Shaft_F 06/22/2023 07:00      6.53      
Abbey_Mills_Shaft_F 06/22/2023 07:05      5.65      
Abbey_Mills_Shaft_F 06/22/2023 07:10      5.73      
Abbey_Mills_Shaft_F 06/22/2023 07:15      6.25      
Abbey_Mills_Shaft_F 06/22/2023 07:20      7.89      
Abbey_Mills_Shaft_F 06/22/2023 07:25      9.97      
Abbey_Mills_Shaft_F 06/22/2023 07:30      12.68     
Abbey_Mills_Shaft_F 06/22/2023 07:35      16.53     
Abbey_Mills_Shaft_F 06/22/2023 07:40      19.3      
Abbey_Mills_Shaft_F 06/22/2023 07:45      19.08     
Abbey_Mills_Shaft_F 06/22/2023 07:50      18.88     
Abbey_Mills_Shaft_F 06/22/2023 07:55      18.65     
Abbey_Mills_Shaft_F 06/22/2023 08:00      17.48     
Abbey_Mills_Shaft_F 06/22/2023 08:05      12.38     
Abbey_Mills_Shaft_F 06/22/2023 08:10      8.49      
Abbey_Mills_Shaft_F 06/22/2023 08:15      5.62      
Abbey_Mills_Shaft_F 06/22/2023 08:20      3.5       
Abbey_Mills_Shaft_F 06/22/2023 08:25      1.97      
Abbey_Mills_Shaft_F 06/22/2023 08:30      0.89      
Abbey_Mills_Shaft_F 06/22/2023 08:35      0.19      
Abbey_Mills_Shaft_F 06/22/2023 08:40      0         
Abbey_Mills_Shaft_F 06/22/2023 08:45      0         
Abbey_Mills_Shaft_F 06/22/2023 08:50      0         