[TITLE]
;;Project Title/Notes
Lavaca_Sample

[OPTIONS]
;;Option             Value
FLOW_UNITS           CMS
INFILTRATION         HORTON
FLOW_ROUTING         DYNWAVE
LINK_OFFSETS         DEPTH
MIN_SLOPE            0
ALLOW_PONDING        NO
SKIP_STEADY_STATE    NO

START_DATE           01/01/2000
START_TIME           00:00:00
REPORT_START_DATE    01/01/2000
REPORT_START_TIME    00:00:00
END_DATE       02/28/2000
END_TIME       00:00:00
SWEEP_START          01/01
SWEEP_END            12/31
DRY_DAYS             5
REPORT_STEP          01:00:00
WET_STEP             00:15:00
DRY_STEP             01:00:00
ROUTING_STEP         0:01:00 

INERTIAL_DAMPING     PARTIAL
NORMAL_FLOW_LIMITED  BOTH
FORCE_MAIN_EQUATION  D-W
VARIABLE_STEP        0.75
LENGTHENING_STEP     0
MIN_SURFAREA         12.557
MAX_TRIALS           8
HEAD_TOLERANCE       0.005
SYS_FLOW_TOL         5
LAT_FLOW_TOL         5
MINIMUM_STEP         0.5
THREADS              1

[EVAPORATION]
;;Data Source    Parameters
;;-------------- ----------------
CONSTANT         0.0
DRY_ONLY         NO

[JUNCTIONS]
;;Name           Elevation  MaxDepth   InitDepth  SurDepth   Aponded   
;;-------------- ---------- ---------- ---------- ---------- ----------
1485410_0      38.572      0      0      0      0
1485410_1      38.571      0      0      0      0
1485410_2      38.569      0      0      0      0
1485410_3      38.568      0      0      0      0
1485410_4      38.567      0      0      0      0
1485410_5      38.565      0      0      0      0
1485410_6      38.564      0      0      0      0
1485410_7      38.562      0      0      0      0
1485410_8      38.561      0      0      0      0
1485410_9      38.559      0      0      0      0
1485410_10      38.558      0      0      0      0
1485410_11      38.556      0      0      0      0
1485410_12      38.555      0      0      0      0
1485410_13      38.554      0      0      0      0
1485410_14      38.552      0      0      0      0
1485410_15      38.551      0      0      0      0
1485410_16      38.549      0      0      0      0
1485410_17      38.548      0      0      0      0
1485410_18      38.546      0      0      0      0
1485410_19      38.545      0      0      0      0
1485410_20      38.544      0      0      0      0
1485410_21      38.542      0      0      0      0
1485410_22      38.541      0      0      0      0
1485350_0      42.190      0      0      0      0
1485350_1      42.026      0      0      0      0
1485350_2      41.861      0      0      0      0
1485350_3      41.697      0      0      0      0
1485350_4      41.533      0      0      0      0
1485350_5      41.368      0      0      0      0
1485350_6      41.204      0      0      0      0
1485350_7      41.040      0      0      0      0
1485350_8      40.875      0      0      0      0
1485350_9      40.711      0      0      0      0
1485350_10      40.547      0      0      0      0
1485350_11      40.382      0      0      0      0
1485350_12      40.218      0      0      0      0
1485350_13      40.054      0      0      0      0
1485350_14      39.889      0      0      0      0
1485350_15      39.725      0      0      0      0
1485350_16      39.561      0      0      0      0
1485350_17      39.396      0      0      0      0
1485350_18      39.232      0      0      0      0
1485350_19      39.067      0      0      0      0
1485350_20      38.903      0      0      0      0
1485350_21      38.739      0      0      0      0
1486040_0      38.601      0      0      0      0
1486040_1      38.600      0      0      0      0
1486040_2      38.598      0      0      0      0
1486040_3      38.597      0      0      0      0
1486040_4      38.596      0      0      0      0
1486040_5      38.594      0      0      0      0
1486040_6      38.593      0      0      0      0
1486040_7      38.591      0      0      0      0
1486040_8      38.590      0      0      0      0
1486040_9      38.588      0      0      0      0
1486040_10      38.587      0      0      0      0
1486040_11      38.585      0      0      0      0
1486040_12      38.584      0      0      0      0
1486040_13      38.583      0      0      0      0
1486040_14      38.581      0      0      0      0
1486040_15      38.580      0      0      0      0
1486040_16      38.578      0      0      0      0
1486040_17      38.577      0      0      0      0
1486040_18      38.575      0      0      0      0
1485346_0      40.323      0      0      0      0
1485346_1      40.168      0      0      0      0
1485346_2      40.012      0      0      0      0
1485346_3      39.857      0      0      0      0
1485346_4      39.701      0      0      0      0
1485346_5      39.546      0      0      0      0
1485346_6      39.390      0      0      0      0
1485346_7      39.234      0      0      0      0
1485346_8      39.079      0      0      0      0
1485346_9      38.923      0      0      0      0
1485346_10      38.768      0      0      0      0
1485320_0      38.626      0      0      0      0
1485320_1      38.625      0      0      0      0
1485320_2      38.623      0      0      0      0
1485320_3      38.622      0      0      0      0
1485320_4      38.620      0      0      0      0
1485320_5      38.619      0      0      0      0
1485320_6      38.618      0      0      0      0
1485320_7      38.616      0      0      0      0
1485320_8      38.615      0      0      0      0
1485320_9      38.613      0      0      0      0
1485320_10      38.612      0      0      0      0
1485320_11      38.610      0      0      0      0
1485320_12      38.609      0      0      0      0
1485320_13      38.607      0      0      0      0
1485320_14      38.606      0      0      0      0
1485320_15      38.604      0      0      0      0
1485278_0      45.665      0      0      0      0
1485278_1      45.197      0      0      0      0
1485278_2      44.730      0      0      0      0
1485278_3      44.263      0      0      0      0
1485278_4      43.796      0      0      0      0
1485278_5      43.328      0      0      0      0
1485278_6      42.861      0      0      0      0
1485278_7      42.394      0      0      0      0
1485278_8      41.927      0      0      0      0
1485278_9      41.459      0      0      0      0
1485278_10      40.992      0      0      0      0
1485278_11      40.525      0      0      0      0
1485278_12      40.057      0      0      0      0
1485278_13      39.590      0      0      0      0
1485278_14      39.123      0      0      0      0
1485280_0      39.364      0      0      0      0
1485280_1      39.348      0      0      0      0
1485280_2      39.331      0      0      0      0
1485280_3      39.315      0      0      0      0
1485280_4      39.299      0      0      0      0
1485280_5      39.282      0      0      0      0
1485280_6      39.266      0      0      0      0
1485280_7      39.250      0      0      0      0
1485280_8      39.233      0      0      0      0
1485280_9      39.217      0      0      0      0
1485280_10      39.201      0      0      0      0
1485280_11      39.184      0      0      0      0
1485280_12      39.168      0      0      0      0
1485280_13      39.151      0      0      0      0
1485280_14      39.135      0      0      0      0
1485280_15      39.119      0      0      0      0
1485280_16      39.102      0      0      0      0
1485280_17      39.086      0      0      0      0
1485280_18      39.070      0      0      0      0
1485280_19      39.053      0      0      0      0
1485280_20      39.037      0      0      0      0
1485280_21      39.021      0      0      0      0
1485280_22      39.004      0      0      0      0
1485280_23      38.988      0      0      0      0
1485280_24      38.972      0      0      0      0
1485280_25      38.955      0      0      0      0
1485280_26      38.939      0      0      0      0
1485280_27      38.922      0      0      0      0
1485280_28      38.906      0      0      0      0
1485280_29      38.890      0      0      0      0
1485280_30      38.873      0      0      0      0
1485280_31      38.857      0      0      0      0
1485280_32      38.841      0      0      0      0
1485280_33      38.824      0      0      0      0
1485280_34      38.808      0      0      0      0
1485280_35      38.792      0      0      0      0
1485280_36      38.775      0      0      0      0
1485280_37      38.759      0      0      0      0
1485280_38      38.743      0      0      0      0
1485280_39      38.726      0      0      0      0
1485280_40      38.710      0      0      0      0
1485280_41      38.693      0      0      0      0
1485280_42      38.677      0      0      0      0
1485280_43      38.661      0      0      0      0
1485280_44      38.644      0      0      0      0
1485100_0      49.135      0      0      0      0
1485100_1      48.622      0      0      0      0
1485100_2      48.110      0      0      0      0
1485100_3      47.597      0      0      0      0
1485100_4      47.084      0      0      0      0
1485100_5      46.571      0      0      0      0
1485100_6      46.059      0      0      0      0
1485100_7      45.546      0      0      0      0
1485100_8      45.033      0      0      0      0
1485100_9      44.520      0      0      0      0
1485100_10      44.008      0      0      0      0
1485100_11      43.495      0      0      0      0
1485100_12      42.982      0      0      0      0
1485100_13      42.469      0      0      0      0
1485100_14      41.957      0      0      0      0
1485100_15      41.444      0      0      0      0
1485100_16      40.931      0      0      0      0
1485100_17      40.418      0      0      0      0
1485100_18      39.906      0      0      0      0
1485098_0      42.289      0      0      0      0
1485098_1      42.127      0      0      0      0
1485098_2      41.966      0      0      0      0
1485098_3      41.805      0      0      0      0
1485098_4      41.643      0      0      0      0
1485098_5      41.482      0      0      0      0
1485098_6      41.321      0      0      0      0
1485098_7      41.159      0      0      0      0
1485098_8      40.998      0      0      0      0
1485098_9      40.837      0      0      0      0
1485098_10      40.675      0      0      0      0
1485098_11      40.514      0      0      0      0
1485098_12      40.352      0      0      0      0
1485098_13      40.191      0      0      0      0
1485098_14      40.030      0      0      0      0
1485098_15      39.868      0      0      0      0
1485098_16      39.707      0      0      0      0
1485098_17      39.546      0      0      0      0
1485984_0      44.325      0      0      0      0
1485984_1      44.236      0      0      0      0
1485984_2      44.147      0      0      0      0
1485984_3      44.058      0      0      0      0
1485984_4      43.969      0      0      0      0
1485984_5      43.879      0      0      0      0
1485984_6      43.790      0      0      0      0
1485984_7      43.701      0      0      0      0
1485984_8      43.612      0      0      0      0
1485984_9      43.523      0      0      0      0
1485984_10      43.434      0      0      0      0
1485984_11      43.345      0      0      0      0
1485984_12      43.256      0      0      0      0
1485984_13      43.167      0      0      0      0
1485984_14      43.078      0      0      0      0
1485984_15      42.989      0      0      0      0
1485984_16      42.900      0      0      0      0
1485984_17      42.811      0      0      0      0
1485984_18      42.722      0      0      0      0
1485984_19      42.633      0      0      0      0
1485984_20      42.544      0      0      0      0
1486026_0      51.049      0      0      0      0
1486026_1      50.972      0      0      0      0
1486026_2      50.895      0      0      0      0
1486026_3      50.818      0      0      0      0
1486026_4      50.741      0      0      0      0
1486026_5      50.664      0      0      0      0
1486026_6      50.587      0      0      0      0
1486026_7      50.511      0      0      0      0
1486026_8      50.434      0      0      0      0
1486026_9      50.357      0      0      0      0
1486026_10      50.280      0      0      0      0
1486026_11      50.203      0      0      0      0
1486026_12      50.126      0      0      0      0
1486026_13      50.049      0      0      0      0
1486026_14      49.972      0      0      0      0
1486026_15      49.895      0      0      0      0
1486026_16      49.818      0      0      0      0
1486026_17      49.741      0      0      0      0
1485014_0      51.535      0      0      0      0
1485014_1      51.455      0      0      0      0
1485014_2      51.375      0      0      0      0
1485014_3      51.294      0      0      0      0
1485014_4      51.214      0      0      0      0
1486138_0      52.369      0      0      0      0
1485214_0      47.469      0      0      0      0
1485214_1      47.069      0      0      0      0
1485214_2      46.670      0      0      0      0
1485212_0      46.773      0      0      0      0
1485212_1      46.490      0      0      0      0
1485198_0      52.321      0      0      0      0
1485198_1      51.888      0      0      0      0
1485198_2      51.454      0      0      0      0
1485198_3      51.021      0      0      0      0
1485198_4      50.587      0      0      0      0
1485198_5      50.154      0      0      0      0
1485198_6      49.720      0      0      0      0
1485198_7      49.287      0      0      0      0
1485198_8      48.853      0      0      0      0
1485198_9      48.420      0      0      0      0
1485198_10      47.986      0      0      0      0
1485198_11      47.553      0      0      0      0
1485162_0      58.565      0      0      0      0
1485162_1      58.372      0      0      0      0
1485162_2      58.179      0      0      0      0
1485162_3      57.986      0      0      0      0
1485162_4      57.793      0      0      0      0
1485162_5      57.600      0      0      0      0
1485162_6      57.407      0      0      0      0
1485162_7      57.213      0      0      0      0
1485162_8      57.020      0      0      0      0
1485162_9      56.827      0      0      0      0
1485162_10      56.634      0      0      0      0
1485162_11      56.441      0      0      0      0
1485162_12      56.248      0      0      0      0
1485162_13      56.055      0      0      0      0
1485162_14      55.862      0      0      0      0
1485162_15      55.669      0      0      0      0
1485162_16      55.476      0      0      0      0
1485162_17      55.283      0      0      0      0
1485162_18      55.090      0      0      0      0
1485162_19      54.897      0      0      0      0
1485162_20      54.704      0      0      0      0
1485162_21      54.511      0      0      0      0
1485162_22      54.318      0      0      0      0
1485162_23      54.125      0      0      0      0
1485162_24      53.932      0      0      0      0
1485162_25      53.739      0      0      0      0
1485162_26      53.546      0      0      0      0
1485162_27      53.352      0      0      0      0
1485162_28      53.159      0      0      0      0
1485162_29      52.966      0      0      0      0
1485108_0      60.191      0      0      0      0
1485108_1      59.834      0      0      0      0
1485108_2      59.477      0      0      0      0
1485108_3      59.120      0      0      0      0
1485080_0      69.548      0      0      0      0
1485080_1      69.227      0      0      0      0
1485080_2      68.906      0      0      0      0
1485080_3      68.585      0      0      0      0
1485080_4      68.264      0      0      0      0
1485080_5      67.943      0      0      0      0
1485080_6      67.622      0      0      0      0
1485080_7      67.301      0      0      0      0
1485080_8      66.980      0      0      0      0
1485080_9      66.659      0      0      0      0
1485080_10      66.338      0      0      0      0
1485080_11      66.017      0      0      0      0
1485080_12      65.696      0      0      0      0
1485080_13      65.375      0      0      0      0
1485080_14      65.054      0      0      0      0
1485080_15      64.733      0      0      0      0
1485080_16      64.412      0      0      0      0
1485080_17      64.091      0      0      0      0
1485080_18      63.770      0      0      0      0
1485080_19      63.449      0      0      0      0
1485080_20      63.128      0      0      0      0
1485080_21      62.807      0      0      0      0
1485080_22      62.486      0      0      0      0
1485080_23      62.165      0      0      0      0
1485080_24      61.844      0      0      0      0
1485080_25      61.523      0      0      0      0
1485080_26      61.202      0      0      0      0
1485080_27      60.881      0      0      0      0
1485052_0      70.383      0      0      0      0
1485052_1      70.264      0      0      0      0
1485052_2      70.144      0      0      0      0
1485052_3      70.025      0      0      0      0
1485048_0      70.986      0      0      0      0
1485048_1      70.940      0      0      0      0
1485048_2      70.895      0      0      0      0
1485048_3      70.850      0      0      0      0
1485048_4      70.805      0      0      0      0
1485048_5      70.759      0      0      0      0
1485048_6      70.714      0      0      0      0
1485048_7      70.669      0      0      0      0
1485048_8      70.624      0      0      0      0
1485048_9      70.578      0      0      0      0
1485288_0      54.995      0      0      0      0
1485288_1      54.773      0      0      0      0
1485288_2      54.552      0      0      0      0
1485288_3      54.330      0      0      0      0
1485288_4      54.108      0      0      0      0
1485288_5      53.887      0      0      0      0
1485288_6      53.665      0      0      0      0
1485288_7      53.443      0      0      0      0
1485288_8      53.222      0      0      0      0
1485288_9      53.000      0      0      0      0
1485288_10      52.778      0      0      0      0
1485288_11      52.556      0      0      0      0
1485288_12      52.335      0      0      0      0
1485288_13      52.113      0      0      0      0
1485288_14      51.891      0      0      0      0
1485288_15      51.670      0      0      0      0
1485288_16      51.448      0      0      0      0
1485288_17      51.226      0      0      0      0
1485288_18      51.005      0      0      0      0
1485288_19      50.783      0      0      0      0
1485288_20      50.561      0      0      0      0
1485288_21      50.339      0      0      0      0
1485288_22      50.118      0      0      0      0
1485288_23      49.896      0      0      0      0
1485288_24      49.674      0      0      0      0
1485288_25      49.453      0      0      0      0
1485288_26      49.231      0      0      0      0
1485288_27      49.009      0      0      0      0
1485288_28      48.788      0      0      0      0
1485288_29      48.566      0      0      0      0
1485288_30      48.344      0      0      0      0
1485288_31      48.122      0      0      0      0
1485288_32      47.901      0      0      0      0
1485288_33      47.679      0      0      0      0
1485288_34      47.457      0      0      0      0
1485288_35      47.236      0      0      0      0
1485288_36      47.014      0      0      0      0
1485288_37      46.792      0      0      0      0
1485288_38      46.571      0      0      0      0
1485288_39      46.349      0      0      0      0
1485288_40      46.127      0      0      0      0
1485288_41      45.905      0      0      0      0
1485288_42      45.684      0      0      0      0
1485288_43      45.462      0      0      0      0
1485288_44      45.240      0      0      0      0
1485288_45      45.019      0      0      0      0
1485288_46      44.797      0      0      0      0
1485288_47      44.575      0      0      0      0
1485288_48      44.354      0      0      0      0
1485288_49      44.132      0      0      0      0
1485288_50      43.910      0      0      0      0
1485288_51      43.688      0      0      0      0
1485288_52      43.467      0      0      0      0
1485288_53      43.245      0      0      0      0
1485288_54      43.023      0      0      0      0
1485288_55      42.802      0      0      0      0
1485288_56      42.580      0      0      0      0
1485300_0      55.381      0      0      0      0
1485300_1      55.238      0      0      0      0
1485300_2      55.095      0      0      0      0
1485300_3      54.952      0      0      0      0
1485300_4      54.809      0      0      0      0
1485300_5      54.666      0      0      0      0
1485300_6      54.522      0      0      0      0
1485300_7      54.379      0      0      0      0
1485300_8      54.236      0      0      0      0
1485300_9      54.093      0      0      0      0
1485300_10      53.950      0      0      0      0
1485300_11      53.807      0      0      0      0
1485300_12      53.664      0      0      0      0
1485300_13      53.520      0      0      0      0
1485300_14      53.377      0      0      0      0
1485300_15      53.234      0      0      0      0
1485300_16      53.091      0      0      0      0
1485300_17      52.948      0      0      0      0
1485300_18      52.805      0      0      0      0
1485300_19      52.662      0      0      0      0
1485300_20      52.518      0      0      0      0
1485300_21      52.375      0      0      0      0
1485300_22      52.232      0      0      0      0
1485300_23      52.089      0      0      0      0
1485300_24      51.946      0      0      0      0
1485300_25      51.803      0      0      0      0
1485300_26      51.660      0      0      0      0
1485300_27      51.517      0      0      0      0
1485300_28      51.373      0      0      0      0
1485300_29      51.230      0      0      0      0
1485300_30      51.087      0      0      0      0
1485300_31      50.944      0      0      0      0
1485300_32      50.801      0      0      0      0
1485300_33      50.658      0      0      0      0
1485300_34      50.515      0      0      0      0
1485300_35      50.371      0      0      0      0
1485300_36      50.228      0      0      0      0
1485300_37      50.085      0      0      0      0
1485300_38      49.942      0      0      0      0
1485300_39      49.799      0      0      0      0
1485300_40      49.656      0      0      0      0
1485300_41      49.513      0      0      0      0
1485300_42      49.369      0      0      0      0
1485300_43      49.226      0      0      0      0
1485300_44      49.083      0      0      0      0
1485300_45      48.940      0      0      0      0
1485300_46      48.797      0      0      0      0
1485300_47      48.654      0      0      0      0
1485300_48      48.511      0      0      0      0
1485300_49      48.368      0      0      0      0
1485300_50      48.224      0      0      0      0
1485300_51      48.081      0      0      0      0
1485300_52      47.938      0      0      0      0
1485300_53      47.795      0      0      0      0
1485300_54      47.652      0      0      0      0
1485300_55      47.509      0      0      0      0
1485300_56      47.366      0      0      0      0
1485300_57      47.222      0      0      0      0
1485300_58      47.079      0      0      0      0
1485300_59      46.936      0      0      0      0
1485300_60      46.793      0      0      0      0
1485300_61      46.650      0      0      0      0
1485300_62      46.507      0      0      0      0
1485300_63      46.364      0      0      0      0
1485300_64      46.220      0      0      0      0
1485300_65      46.077      0      0      0      0
1485300_66      45.934      0      0      0      0
1485300_67      45.791      0      0      0      0
1485300_68      45.648      0      0      0      0
1485300_69      45.505      0      0      0      0
1485300_70      45.362      0      0      0      0
1485300_71      45.219      0      0      0      0
1485300_72      45.075      0      0      0      0
1485300_73      44.932      0      0      0      0
1485300_74      44.789      0      0      0      0
1485300_75      44.646      0      0      0      0
1485300_76      44.503      0      0      0      0
1485300_77      44.360      0      0      0      0
1485300_78      44.217      0      0      0      0
1485300_79      44.073      0      0      0      0
1485300_80      43.930      0      0      0      0
1485300_81      43.787      0      0      0      0
1485300_82      43.644      0      0      0      0
1485300_83      43.501      0      0      0      0
1485300_84      43.358      0      0      0      0
1485300_85      43.215      0      0      0      0
1485300_86      43.071      0      0      0      0
1485300_87      42.928      0      0      0      0
1485300_88      42.785      0      0      0      0
1485300_89      42.642      0      0      0      0
1485300_90      42.499      0      0      0      0
1485232_0      61.248      0      0      0      0
1485232_1      60.867      0      0      0      0
1485232_2      60.486      0      0      0      0
1485232_3      60.105      0      0      0      0
1485232_4      59.724      0      0      0      0
1485232_5      59.343      0      0      0      0
1485232_6      58.962      0      0      0      0
1485232_7      58.581      0      0      0      0
1485232_8      58.201      0      0      0      0
1485232_9      57.820      0      0      0      0
1485232_10      57.439      0      0      0      0
1485232_11      57.058      0      0      0      0
1485232_12      56.677      0      0      0      0
1485232_13      56.296      0      0      0      0
1485232_14      55.915      0      0      0      0
1485234_0      58.530      0      0      0      0
1485234_1      58.343      0      0      0      0
1485234_2      58.155      0      0      0      0
1485234_3      57.968      0      0      0      0
1485234_4      57.781      0      0      0      0
1485234_5      57.593      0      0      0      0
1485234_6      57.406      0      0      0      0
1485234_7      57.219      0      0      0      0
1485234_8      57.031      0      0      0      0
1485234_9      56.844      0      0      0      0
1485234_10      56.657      0      0      0      0
1485234_11      56.469      0      0      0      0
1485234_12      56.282      0      0      0      0
1485234_13      56.095      0      0      0      0
1485234_14      55.908      0      0      0      0
1485234_15      55.720      0      0      0      0
1485186_0      58.727      0      0      0      0
1485180_0      61.485      0      0      0      0
1485180_1      61.399      0      0      0      0
1485180_2      61.313      0      0      0      0
1485180_3      61.227      0      0      0      0
1485180_4      61.141      0      0      0      0
1485180_5      61.055      0      0      0      0
1485180_6      60.969      0      0      0      0
1485180_7      60.883      0      0      0      0
1485180_8      60.796      0      0      0      0
1485180_9      60.710      0      0      0      0
1485180_10      60.624      0      0      0      0
1485180_11      60.538      0      0      0      0
1485180_12      60.452      0      0      0      0
1485180_13      60.366      0      0      0      0
1485180_14      60.280      0      0      0      0
1485180_15      60.194      0      0      0      0
1485180_16      60.108      0      0      0      0
1485180_17      60.022      0      0      0      0
1485180_18      59.936      0      0      0      0
1485180_19      59.850      0      0      0      0
1485180_20      59.764      0      0      0      0
1485180_21      59.677      0      0      0      0
1485180_22      59.591      0      0      0      0
1485180_23      59.505      0      0      0      0
1485180_24      59.419      0      0      0      0
1485180_25      59.333      0      0      0      0
1485180_26      59.247      0      0      0      0
1485180_27      59.161      0      0      0      0
1485180_28      59.075      0      0      0      0
1485180_29      58.989      0      0      0      0
1485180_30      58.903      0      0      0      0
1485180_31      58.817      0      0      0      0
1485116_0      61.644      0      0      0      0
1485110_0      62.860      0      0      0      0
1485110_1      62.697      0      0      0      0
1485110_2      62.533      0      0      0      0
1485110_3      62.370      0      0      0      0
1485110_4      62.207      0      0      0      0
1485110_5      62.043      0      0      0      0
1485110_6      61.880      0      0      0      0
1485090_0      63.415      0      0      0      0
1485086_0      77.290      0      0      0      0
1485086_1      76.894      0      0      0      0
1485086_2      76.498      0      0      0      0
1485086_3      76.101      0      0      0      0
1485086_4      75.705      0      0      0      0
1485086_5      75.308      0      0      0      0
1485086_6      74.912      0      0      0      0
1485086_7      74.516      0      0      0      0
1485086_8      74.119      0      0      0      0
1485086_9      73.723      0      0      0      0
1485086_10      73.327      0      0      0      0
1485086_11      72.930      0      0      0      0
1485086_12      72.534      0      0      0      0
1485086_13      72.138      0      0      0      0
1485086_14      71.741      0      0      0      0
1485086_15      71.345      0      0      0      0
1485086_16      70.948      0      0      0      0
1485086_17      70.552      0      0      0      0
1485086_18      70.156      0      0      0      0
1485086_19      69.759      0      0      0      0
1485086_20      69.363      0      0      0      0
1485086_21      68.967      0      0      0      0