[TITLE]
;;Project Title/Notes

[OPTIONS]
;;Option             Value
FLOW_UNITS           CMS
INFILTRATION         MODIFIED_GREEN_AMPT
FLOW_ROUTING         DYNWAVE
LINK_OFFSETS         DEPTH
MIN_SLOPE            0
ALLOW_PONDING        NO
SKIP_STEADY_STATE    NO

START_DATE           02/18/2022
START_TIME           00:00:00
REPORT_START_DATE    02/18/2022
REPORT_START_TIME    00:00:00
END_DATE             02/18/2022
END_TIME             01:00:00
SWEEP_START          01/01
SWEEP_END            12/31
DRY_DAYS             0
REPORT_STEP          00:00:01
WET_STEP             00:05:00
DRY_STEP             01:00:00
ROUTING_STEP         0:00:01 
RULE_STEP            00:00:00

INERTIAL_DAMPING     NONE
NORMAL_FLOW_LIMITED  BOTH
FORCE_MAIN_EQUATION  D-W
SURCHARGE_METHOD     SLOT
VARIABLE_STEP        0.75
LENGTHENING_STEP     0
MIN_SURFAREA         1.167
MAX_TRIALS           8
HEAD_TOLERANCE       0.0015
SYS_FLOW_TOL         5
LAT_FLOW_TOL         5
MINIMUM_STEP         0.5
THREADS              1

[EVAPORATION]
;;Data Source    Parameters
;;-------------- ----------------
CONSTANT         0.0
DRY_ONLY         NO

[JUNCTIONS]
;;Name           Elevation  MaxDepth   InitDepth  SurDepth   Aponded   
;;-------------- ---------- ---------- ---------- ---------- ----------
1                0          2          1.75       2          0         
2                0          2          1.75       2          0         
3                0          2          1.75       2          0         
4                0          2          1.75       2          0         
5                0          2          1.75       2          0         
6                0          2          1.75       2          0         
7                0          2          1.75       2          0         
8                0          2          1.75       2          0         
9                0          2          1.75       2          0         

[OUTFALLS]
;;Name           Elevation  Type       Stage Data       Gated    Route To        
;;-------------- ---------- ---------- ---------------- -------- ----------------
10               0          FREE                        NO                       

[CONDUITS]
;;Name           From Node        To Node          Length     Roughness  InOffset   OutOffset  InitFlow   MaxFlow   
;;-------------- ---------------- ---------------- ---------- ---------- ---------- ---------- ---------- ----------
1                1                2                1000       0.012      0          0          0          0         
2                2                3                1000       0.012      0          0          0          0         
3                3                4                1000       0.012      0          0          0          0         
4                4                5                1000       0.012      0          0          0          0         
5                5                6                1000       0.012      0          0          0          0         
6                6                7                1000       0.012      0          0          0          0         
7                7                8                1000       0.016      0          0          0          0         
8                8                9                1000       0.016      0          0          0          0         
9                9                10               1000       0.016      0          0          0          0         

[XSECTIONS]
;;Link           Shape        Geom1            Geom2      Geom3      Geom4      Barrels    Culvert   
;;-------------- ------------ ---------------- ---------- ---------- ---------- ---------- ----------
1                CIRCULAR     2                0          0          0          1                    
2                CIRCULAR     2                0          0          0          1                    
3                CIRCULAR     2                0          0          0          1                    
4                CIRCULAR     2                0          0          0          1                    
5                CIRCULAR     2                0          0          0          1                    
6                CIRCULAR     2                0          0          0          1                    
7                CIRCULAR     10                0          0          0          1                    
8                CIRCULAR     10                0          0          0          1                    
9                CIRCULAR     10                0          0          0          1                    

[INFLOWS]
;;Node           Constituent      Time Series      Type     Mfactor  Sfactor  Baseline Pattern
;;-------------- ---------------- ---------------- -------- -------- -------- -------- --------
1                FLOW             Surcharge_time_series FLOW     1.0      1.0              

[TIMESERIES]
;;Name           Date       Time       Value     
;;-------------- ---------- ---------- ----------
Surcharge_time_series            00:00      0         
Surcharge_time_series            00:04      0         
Surcharge_time_series            00:05      10        
Surcharge_time_series            00:15      10        
Surcharge_time_series            00:16      0         

[REPORT]
;;Reporting Options
SUBCATCHMENTS ALL
NODES ALL
LINKS ALL

[TAGS]

[MAP]
DIMENSIONS 0.000 0.000 10000.000 10000.000
Units      None

[COORDINATES]
;;Node           X-Coord            Y-Coord           
;;-------------- ------------------ ------------------
1                -3000.000          5000.000          
2                -2000.000          5000.000          
3                -1000.000          5000.000          
4                0.000              5000.000          
5                1000.000           5000.000          
6                2000.000           5000.000          
7                3000.000           5000.000          
8                4000.000           5000.000          
9                5000.000           5000.000          
10               6000.000           5000.000          

[VERTICES]
;;Link           X-Coord            Y-Coord           
;;-------------- ------------------ ------------------

