[TITLE]
;;Project Title/Notes
Example User5 -- No rain, main inflows only (extraneous conduits removed)

[OPTIONS]
;;Option             Value
FLOW_UNITS           CFS
INFILTRATION         HORTON
FLOW_ROUTING         DYNWAVE
LINK_OFFSETS         DEPTH
MIN_SLOPE            0
ALLOW_PONDING        NO
SKIP_STEADY_STATE    NO

START_DATE           08/11/1998
START_TIME           00:00:00
REPORT_START_DATE    08/11/1998
REPORT_START_TIME    00:00:00
END_DATE             08/11/1998
END_TIME             04:00:00
SWEEP_START          01/01
SWEEP_END            12/31
DRY_DAYS             0
REPORT_STEP          00:01:00
WET_STEP             00:01:00
DRY_STEP             00:01:00
ROUTING_STEP         0:00:30 

INERTIAL_DAMPING     NONE
NORMAL_FLOW_LIMITED  FROUDE
FORCE_MAIN_EQUATION  H-W
VARIABLE_STEP        0.75
LENGTHENING_STEP     0
MIN_SURFAREA         12.557
MAX_TRIALS           8
HEAD_TOLERANCE       0.005
SYS_FLOW_TOL         5
LAT_FLOW_TOL         5
MINIMUM_STEP         0.5
THREADS              1

[FILES]
;;Interfacing Files

[EVAPORATION]
;;Data Source    Parameters
;;-------------- ----------------
CONSTANT         0.1
DRY_ONLY         NO

     

[JUNCTIONS]
;;Name           Elevation  MaxDepth   InitDepth  SurDepth   Aponded   
;;-------------- ---------- ---------- ---------- ---------- ----------
0.10_RM          640.60     59.40      9.42        0          0         
0.10_UP          640.70     59.30      9.32        0          0         
0.15_RM          643.90     56.10      6.13        0          0         
102              684.50     65.50      .00        0          0         
1050             673.33     26.67      .00        0          0         
10SB1            676.54     73.46      .00        0          0         
;;10SB11           692.80     57.20      .00        0          0         
;;10SB14           652.00     48.00      .00        0          0         
;;10SB17           666.03     33.97      .00        0          0         
;;10SB6            680.92     19.08      .00        0          0         
1118             671.90     78.10      .00        0          0         
1119             671.87     78.13      .00        0          0         
1120             671.83     78.17      .00        0          0         
1121             671.80     78.20      .00        0          0         
1122             671.77     78.23      .00        0          0         
1123             671.73     78.27      .00        0          0         
1124             671.70     78.30      .00        0          0         
1125             671.67     78.33      .00        0          0         
1126             671.63     78.37      .00        0          0         
1127             671.60     78.40      .00        0          0         
1128             671.59     28.41      .00        0          0         
;;11SB1            683.13     66.87      .00        0          0         
;;11SB11           694.80     55.20      .00        0          0         
11SB14_OF        645.50     54.50      4.56        0          0         
;;11SB17           657.02     42.98      .00        0          0         
;;11SB6            684.00     66.00      .00        0          0         
;;12SB1            692.00     58.00      .00        0          0         
;;12SB11           744.30     30.70      .00        0          0         
;;12SB6            690.00     60.00      .00        0          0         
;;13SB1            688.40     61.60      .00        0          0         
;;13SB11           682.80     67.20      .00        0          0         
;;13SB17           653.18     46.82      .00        0          0         
;;13SB6            696.00     54.00      .00        0          0         
;;14SB1            695.00     55.00      .00        0          0         
;;14SB11           688.45     61.55      .00        0          0         
;;14SB17           655.94     44.06      .00        0          0         
;;14SB6            694.00     56.00      .00        0          0         
;;15SB1            678.50     71.50      .00        0          0         
;;15SB11           690.75     59.25      .00        0          0         
;;15SB17           659.00     41.00      .00        0          0         
;;15SB6            700.00     50.00      .00        0          0         
;;16SB1            675.50     74.50      .00        0          0         
;;16SB11           692.15     57.85      .00        0          0         
;;16SB17           668.50     31.50      .00        0          0         
;;16SB6            685.90     64.10      .00        0          0         
;;17SB1            675.41     74.59      .00        0          0         
;;17SB11           693.60     56.40      .00        0          0         
;;17SB17           662.39     37.61      .00        0          0         
;;17SB6            693.00     57.00      .00        0          0         
;;18SB1            680.90     69.10      .00        0          0         
;;18SB17           651.81     48.19      .00        0          0         
;;18SB6            701.00     49.00      .00        0          0         
;;19SB1            683.00     67.00      .00        0          0         
;;19SB17           648.35     51.65      1.75        0          0         
;;19SB6            718.00     32.00      .00        0          0         
1SB11_OF         650.63     49.37      .00        0          0         
;;1SB14            690.50     59.50      .00        0          0         
1SB17_OF         647.96     52.04      2.10        0          0         
;;1SB19            670.00     30.00      .00        0          0         
;;1SB20            678.00     22.00      .00        0          0         
;;1SB21            677.00     23.00      .00        0          0         
;;1SB22            679.00     21.00      .00        0          0         
;;1SB23            682.00     18.00      .00        0          0         
1SB3_MIL         679.91     20.09      .00        0          0         
;;1SB4             682.55     17.45      .00        0          0         
;;1SB5             677.60     22.40      .00        0          0         
1SB6_OF          665.98     34.02      .00        0          0         
;;1SB7             678.41     21.59      .00        0          0         
;;1SB9             676.10     23.90      .00        0          0         
;;20SB1            688.00     62.00      .00        0          0         
;;20SB6            709.50     40.50      .00        0          0         
;;21SB1            700.50     49.50      .00        0          0         
;;21SB6            710.00     40.00      .00        0          0         
;;22SB1            708.00     42.00      .00        0          0         
;;22SB6            706.00     44.00      .00        0          0         
;;23SB1            705.00     45.00      .00        0          0         
;;23SB6            697.00     53.00      .00        0          0         
;;24SB1            706.00     44.00      .00        0          0         
;;24SB6            716.40     33.60      .00        0          0         
;;25SB1            696.00     54.00      .00        0          0         
;;25SB6            718.80     31.20      .00        0          0         
;;26SB1            697.00     53.00      .00        0          0         
;;26SB6            723.90     26.10      .00        0          0         
;;27SB1            690.00     60.00      .00        0          0         
;;28SB1            688.00     62.00      .00        0          0         
;;29SB1            684.00     66.00      .00        0          0         
;;2SB1             698.43     51.57      .00        0          0         
;;2SB11            664.45     35.55      .00        0          0         
;;2SB14            683.70     16.30      .00        0          0         
;;2SB17            668.13     31.87      .00        0          0         
;;2SB19            669.31     30.69      .00        0          0         
2SB20_OF         660.48     39.52      .00        0          0         
;;2SB21            667.60     32.40      .00        0          0         
;;2SB22            670.10     29.90      .00        0          0         
;;2SB23            678.00     22.00      .00        0          0         
2SB2_MIL         675.60     74.40      .00        0          0         
2SB3             677.13     22.87      .00        0          0         
;;2SB4             678.55     21.45      .00        0          0         
;;2SB5             677.60     22.40      .00        0          0         
;;2SB6             670.48     29.52      .00        0          0         
;;2SB7             677.96     22.04      .00        0          0         
;;2SB9             667.00     33.00      .00        0          0         
;;30SB1            682.10     67.90      .00        0          0         
;;31SB1            684.00     66.00      .00        0          0         
32SB1            678.17     21.83      .00        0          0         
33SB1            675.32     24.68      .00        0          0         
;;34SB1            686.00     14.00      .00        0          0         
;;35SB1            680.01     19.99      .00        0          0         
;;36SB1            678.51     21.49      .00        0          0         
;;37SB1            679.34     20.66      .00        0          0         
;;38SB1            682.20     17.80      .00        0          0         
;;39SB1            686.95     13.05      .00        0          0         
;;3SB1             697.25     52.75      .00        0          0         
;;3SB14            682.00     18.00      .00        0          0         
;;3SB17            675.00     25.00      .00        0          0         
;;3SB19            664.82     35.18      .00        0          0         
;;3SB21            669.35     30.65      .00        0          0         
;;3SB22            668.60     31.40      .00        0          0         
;;3SB23            674.66     25.34      .00        0          0         
;;3SB3             680.56     19.44      .00        0          0         
;;3SB5             672.93     27.07      .00        0          0         
;;3SB6             674.39     25.61      .00        0          0         
;;3SB7             676.82     23.18      .00        0          0         
;;3SB9             667.63     32.37      .00        0          0         
;;40SB1            675.00     25.00      .00        0          0         
41SB1            673.80     26.20      .00        0          0         
42SB1            672.86     27.14      .00        0          0         
;;43SB1            679.40     20.60      .00        0          0         
;;44SB1            680.30     19.70      .00        0          0         
;;45SB1            678.50     21.50      .00        0          0         
46SB1            671.51     28.49      .00        0          0         
47SB1            669.91     30.09      .00        0          0         
48SB1_OF         669.08     30.92      .00        0          0         
;;49SB1            672.62     27.38      .00        0          0         
;;4SB1             695.56     54.44      .00        0          0         
;;4SB11            668.40     81.60      .00        0          0         
;;4SB14            677.00     23.00      .00        0          0         
;;4SB17            678.00     22.00      .00        0          0         
4SB19_OF         658.43     41.57      .00        0          0         
;;4SB21            666.60     33.40      .00        0          0         
4SB22_OF         665.04     34.96      .00        0          0         
;;4SB23            676.17     23.83      .00        0          0         
;;4SB3             683.62     16.38      .00        0          0         
4SB5_OF          666.89     33.11      .00        0          0         
;;4SB6             679.84     20.16      .00        0          0         
;;4SB7             675.61     24.39      .00        0          0         
;;4SB9             677.00     23.00      .00        0          0         
;;50SB1            672.47     27.53      .00        0          0         
;;51SB1            675.20     24.80      .00        0          0         
52SB1_OF         669.70     30.30      .00        0          0         
53SB1_OF         670.70     29.30      .00        0          0         
5SB1             689.42     60.58      .00        0          0         
;;5SB11            675.00     75.00      .00        0          0         
;;5SB14            669.00     31.00      .00        0          0         
;;5SB17            668.10     31.90      .00        0          0         
5SB21_OF         663.00     37.00      .00        0          0         
;;5SB23            674.08     25.92      .00        0          0         
;;5SB3             682.56     17.44      .00        0          0         
;;5SB6             676.04     23.96      .00        0          0         
5SB7_OF          664.35     35.65      .00        0          0         
5SB9_OF          656.03     43.97      .00        0          0         
;;6SB1             703.60     46.40      .00        0          0         
;;6SB11            679.50     70.50      .00        0          0         
;;6SB14            673.00     27.00      .00        0          0         
;;6SB17            666.20     33.80      .00        0          0         
;;6SB3             679.53     20.47      .00        0          0         
745              666.74     33.26      .00        0          0         
747              659.37     40.63      .00        0          0         
;;751              672.10     27.90      .00        0          0         
;;754              680.00     20.00      .00        0          0         
;;756              679.27     70.73      .00        0          0         
;;757              682.28     17.72      .00        0          0         
;;758              683.05     66.95      .00        0          0         
7SB1             684.17     65.83      .00        0          0         
;;7SB11            684.60     65.40      .00        0          0         
;;7SB14            680.00     20.00      .00        0          0         
;;7SB17            668.20     31.80      .00        0          0         
7SB3             674.35     25.65      .00        0          0         
;;7SB6             679.00     21.00      .00        0          0         
800              649.87     50.13      0.19        0          0         
802              645.40     54.60      4.65        0          0         
818              670.50     29.50      .00        0          0         
822              669.07     30.93      .00        0          0         
824              668.40     31.60      .00        0          0         
;;8SB1             682.00     68.00      .00        0          0         
;;8SB11            687.05     62.95      .00        0          0         
;;8SB14            681.00     19.00      .00        0          0         
;;8SB17            670.30     29.70      .00        0          0         
8SB3_OF          670.08     29.92      .00        0          0         
;;8SB6             678.00     22.00      .00        0          0         
9SB1             680.71     69.29      .00        0          0         
;;9SB11            691.50     58.50      .00        0          0         
;;9SB14            668.00     32.00      .00        0          0         
;;9SB17            668.00     32.00      .00        0          0         
O.15_UP          644.00     56.00      6.05        0          0         
SB1018_OF        653.27     46.73      .00        0          0         
SB1216_OF        647.80     52.20      2.26        0          0         

[OUTFALLS]
;;Name           Elevation  Type       Stage Data       Gated    Route To        
;;-------------- ---------- ---------- ---------------- -------- ----------------
O.O_RM           637.8      FIXED      650              YES                      

[STORAGE]
;;Name           Elev.    MaxDepth   InitDepth  Shape      Curve Name/Params            N/A      Fevap    Psi      Ksat     IMD     
;;-------------- -------- ---------- ----------- ---------- ---------------------------- -------- --------          -------- --------
1SB1             704.45   35.55      0.0        TABULAR    1SB1                         0        0       
99               682.0    8.0        0.0        TABULAR    99                           0        0       

[CONDUITS]
;;Name           From Node        To Node          Length     Roughness  InOffset   OutOffset  InitFlow   MaxFlow   
;;-------------- ---------------- ---------------- ---------- ---------- ---------- ---------- ---------- ----------
;; inflow 102 path to end
BradleyIn        102              99               100.0      0.02       0.5        0.0        0.0        0         
Brad_Out         99               2SB2_MIL         50.0       0.02       0.0        0.0        0.0        0         
BradBox          102              2SB2_MIL         600.0      0.018      0.0        0.0        0.0        0         
BradBoxOv        102              2SB2_MIL         100.0      0.04       5.0        13.8       0.0        0    
LIB_1            2SB2_MIL         1118             100.0      0.014      0.0        0.0        0.0        0         
LIB_2            1118             1119             50.0       0.014      0.0        0.0        0.0        0         
LIB_3            1119             1120             100.0      0.014      0.0        0.0        0.0        0         
LIB_4            1120             1121             50.0       0.014      0.0        0.0        0.0        0         
LIB_5            1121             1122             50.0       0.014      0.0        0.0        0.0        0         
LIB_6            1122             1123             100.0      0.014      0.0        0.0        0.0        0         
LIB_7            1123             1124             50.0       0.014      0.0        0.0        0.0        0         
LIB_8            1124             1125             50.0       0.014      0.0        0.0        0.0        0         
LIB_9            1125             1126             200.0      0.014      0.0        0.0        0.0        0         
LIB_10           1126             1127             50.0       0.014      0.0        0.0        0.0        0         
LIB_12           1128             53SB1_OF         170.0      0.014      0.0        0.6        0.0        0        
55_OVRFLW        53SB1_OF         818              58.0       0.014      8.47       7.5        0.0        0         
55_5x12_1        53SB1_OF         818              60.0       0.015      0.0        0.0        0.0        0         
55_5x12_2        53SB1_OF         818              60.0       0.015      0.0        0.0        0.0        0    
702              818              8SB3_OF          300.0      0.014      0.0        0.0        0.0        0         
703              8SB3_OF          52SB1_OF         180.0      0.014      0.0        0.0        0.0        0         
704              52SB1_OF         48SB1_OF         365.0      0.014      0.0        0.0        0.0        0
53_#7TRP         48SB1_OF         822              100.0      0.05       0.0        0.0        0.0        0    
705              822              824              420.0      0.014      0.0        0.0        0.0        0         
825              824              4SB5_OF          350.0      0.014      0.0        0.0        0.0        0  
51OVRFLW         4SB5_OF          745              75.0       0.014      8.61       8.661      0.0        0         
51_7x10_1        4SB5_OF          745              75.0       0.02       0.0        0.0        0.0        0         
51_7x10_2        4SB5_OF          745              75.0       0.02       0.0        0.0        0.0        0  
746_modify       745              1SB6_OF          180.0      0.03       0.0        0.0        0.0        0 
707_modify       1SB6_OF          4SB22_OF         220.0      0.02       0.0        0.0        0.0        0         
708_modify       4SB22_OF         5SB7_OF          175.0      0.02       0.0        0.0        0.0        0         
709_modify       5SB7_OF          5SB21_OF         345.0      0.02       0.0        0.0        0.0        0         
710_modify       5SB21_OF         2SB20_OF         370.0      0.02       0.0        0.0        0.0        0         
47PIPE           2SB20_OF         747              150.0      0.03       0.0        0.0        0.0        0         
47OVRFLW         2SB20_OF         747              150.0      0.03       11.52      12.555     0.0        0  
748              747              4SB19_OF         200.0      0.04       0.0        0.0        0.0        0   
712              4SB19_OF         5SB9_OF          400.0      0.04       0.0        0.0        0.0        0         
713              5SB9_OF          SB1018_OF        400.0      0.04       0.0        0.0        0.0        0         
714              SB1018_OF        1SB11_OF         395.0      0.04       0.0        0.0        0.0        0   
DEANPIPE1        1SB11_OF         800              100.0      0.025      0.0        0.0        0.0        0         
DEANPIPE2        1SB11_OF         800              100.0      0.025      0.0        0.0        0.0        0         
DEANOVER         1SB11_OF         800              100.0      0.025      12.74      13.2       0.0        0    
801              800              1SB17_OF         530.0      0.014      0.0        0.0        0.0        0      
TEUT_OVF         1SB17_OF         SB1216_OF        110.0      0.025      13.67      13.39      0.0        0         
TEUTPIPE1        1SB17_OF         SB1216_OF        110.0      0.02       0.0        0.0        0.0        0   
717              SB1216_OF        11SB14_OF        630.0      0.014      0.0        0.0        0.0        0    
GBPIPE           11SB14_OF        802              140.0      0.02       0.0        0.0        0.0        0         
GB_OVER          11SB14_OF        802              140.0      0.02       12.5       12.04      0.0        0         
.21NAT           802              O.15_UP          185.0      0.02       0.0        0.0        0.0        0         
DEERWPIPE        O.15_UP          0.15_RM          75.0       0.02       0.0        0.0        0.0        0         
DEER_OVR         O.15_UP          0.15_RM          55.0       0.02       9.2        9.201      0.0        0         
.13_NAT          0.15_RM          0.10_UP          240.0      0.02       0.0        0.0        0.0        0         
PATH_PIPE        0.10_UP          0.10_RM          50.0       0.02       0.0        0.0        0.0        0         
PATH_OV          0.10_UP          0.10_RM          50.0       0.02       4.0        4.0        0.0        0     
0.06_NAT         0.10_RM          O.O_RM           520.0      0.014      0.0        0.0        0.0        0     
;; 0.06_NAT is outfall

;; inflow 1SB1 path starting at storage
644              1SB1             5SB1             515.0      0.019      0.0        6.58       0.0        0  
36inch_1         5SB1             7SB1             679.0      0.019      0.0        0.0        0.0        0         
54inch_1         5SB1             7SB1             679.0      0.019      0.0        0.0        0.0        0         
36inch_2         7SB1             9SB1             533.0      0.019      0.0        0.0        0.0        0         
54inch_2         7SB1             9SB1             533.0      0.019      0.0        0.0        0.0        0  
647              9SB1             10SB1            770.0      0.019      0.0        2.58       0.0        0     
826              10SB1            32SB1            350.0      0.014      3.58       0.0        0.0        0  
686              32SB1            33SB1            350.0      0.024      0.0        1.9        0.0        0 
684              33SB1            41SB1            350.0      0.024      0.0        0.0        0.0        0    
1051             41SB1            1050             350.0      0.014      0.0        0.0        0.0        0 
s_config2        1050             42SB1            350.0      0.04       0.0        0.0        0.0        0   
892pipe          42SB1            46SB1            320.0      0.019      0.0        0.0        0.0        0         
892chan          42SB1            46SB1            320.0      0.019      5.84       5.5        0.0        0         
893pipe          46SB1            47SB1            380.0      0.019      0.0        0.0        0.0        0         
893chan          46SB1            47SB1            380.0      0.019      5.5        5.5        0.0        0   
691pipe          47SB1            822              200.0      0.019      0.0        0.0        0.0        0         
691chan          47SB1            822              200.0      0.019      5.5        5.5        0.0        0  
;; at 822 joins pipe path for inflow 102

;; inflow path for 1SB3_MIL
839chan          1SB3_MIL         2SB3             220.0      0.019      2.0        2.0        0.0        0         
839pipe          1SB3_MIL         2SB3             220.0      0.019      0.0        0.0        0.0        0         
838chan          2SB3             7SB3             220.0      0.019      4.0        4.0        0.0        0         
838pipe          2SB3             7SB3             220.0      0.019      0.0        0.0        0.0        0   
838of            7SB3             8SB3_OF          170.0      0.019      4.0        6.12       0.0        0         
838pip           7SB3             8SB3_OF          170.0      0.019      0.0        2.12       0.0        0    
;; at 8SB3_OF joins pipe path for inflow 102

[WEIRS]
;;Name           From Node        To Node          Type         CrestHt    Qcoeff     Gated    EndCon   EndCoeff   Surcharge  RoadWidth  RoadSurf   Coeff. Curve
;;-------------- ---------------- ---------------- ------------ ---------- ---------- -------- -------- ---------- ---------- ---------- ---------- ----------------
WEIR1            1127             1128             TRANSVERSE   0.0        3.32       NO       0        0          YES       
WEIR2            1127             1128             TRANSVERSE   4.0        2.64       NO       0        0          YES       
WEIR3            1127             1128             TRANSVERSE   8.0        2.63       NO       0        0          YES       

[XSECTIONS]
;;Link           Shape        Geom1            Geom2      Geom3      Geom4      Barrels    Culvert   
;;-------------- ------------ ---------------- ---------- ---------- ---------- ---------- ----------
;;583              IRREGULAR    1                0          0          0          1                    
;;591              IRREGULAR    2                0          0          0          1                    
;;592              IRREGULAR    3                0          0          0          1                    
;;593              IRREGULAR    4                0          0          0          1                    
;;594              IRREGULAR    5                0          0          0          1                    
;;595              IRREGULAR    6                0          0          0          1                    
;;596              IRREGULAR    7                0          0          0          1                    
;;597              IRREGULAR    8                0          0          0          1                    
;;598              IRREGULAR    9                0          0          0          1                    
;;601              IRREGULAR    10               0          0          0          1                    
;;602              IRREGULAR    11               0          0          0          1                    
;;604              IRREGULAR    12               0          0          0          1                    
;;606              IRREGULAR    13               0          0          0          1                    
;;607              IRREGULAR    14               0          0          0          1                    
;;608              IRREGULAR    15               0          0          0          1                    
;;609              IRREGULAR    16               0          0          0          1                    
;;610              TRAPEZOIDAL  5.0              5.0        2.0        2.0        1                    
;;612              IRREGULAR    17               0          0          0          1                    
;;613              IRREGULAR    18               0          0          0          1                    
;;615              IRREGULAR    19               0          0          0          1                    
;;616              IRREGULAR    20               0          0          0          1                    
;;618              IRREGULAR    21               0          0          0          1                    
;;619              IRREGULAR    22               0          0          0          1                    
;;620              IRREGULAR    23               0          0          0          1                    
;;622              IRREGULAR    24               0          0          0          1                    
;;623              IRREGULAR    25               0          0          0          1                    
;;624              IRREGULAR    26               0          0          0          1                    
;;626              IRREGULAR    27               0          0          0          1                    
;;627              IRREGULAR    28               0          0          0          1                    
;;628              IRREGULAR    29               0          0          0          1                    
;;629              IRREGULAR    30               0          0          0          1                    