[TITLE]
;;Project Title/Notes
Lavaca_Sample

[OPTIONS]
;;Option             Value
FLOW_UNITS           CMS
INFILTRATION         HORTON
FLOW_ROUTING         KINWAVE
LINK_OFFSETS         DEPTH
MIN_SLOPE            0
ALLOW_PONDING        NO
SKIP_STEADY_STATE    NO

START_DATE           01/01/2000
START_TIME           00:00:00
REPORT_START_DATE    01/01/2000
REPORT_START_TIME    00:00:00
END_DATE       01/02/2000
END_TIME       00:00:00
SWEEP_START          01/01
SWEEP_END            12/31
DRY_DAYS             5
REPORT_STEP          00:05:00
WET_STEP             00:15:00
DRY_STEP             01:00:00
ROUTING_STEP         0:01:00 

INERTIAL_DAMPING     PARTIAL
NORMAL_FLOW_LIMITED  BOTH
FORCE_MAIN_EQUATION  D-W
VARIABLE_STEP        0.75
LENGTHENING_STEP     0
MIN_SURFAREA         12.557
MAX_TRIALS           8
HEAD_TOLERANCE       0.005
SYS_FLOW_TOL         5
LAT_FLOW_TOL         5
MINIMUM_STEP         0.5
THREADS              1

[EVAPORATION]
;;Data Source    Parameters
;;-------------- ----------------
CONSTANT         0.0
DRY_ONLY         NO

[JUNCTIONS]
;;Name           Elevation  MaxDepth   InitDepth  SurDepth   Aponded   
;;-------------- ---------- ---------- ---------- ---------- ----------
7843187_0      0.018      0      2.986      0      0
7843187_1      0.015      0      2.988      0      0
7843187_2      0.012      0      2.991      0      0
7843187_3      0.009      0      2.993      0      0
7843187_4      0.006      0      2.995      0      0
7843187_5      0.003      0      2.997      0      0
7843185_0      0.034      0      2.975      0      0
7843185_1      0.033      0      2.976      0      0
7843185_2      0.031      0      2.977      0      0
7843185_3      0.030      0      2.978      0      0
7843185_4      0.028      0      2.978      0      0
7843185_5      0.027      0      2.979      0      0
7843185_6      0.025      0      2.980      0      0
7843185_7      0.024      0      2.981      0      0
7843185_8      0.022      0      2.982      0      0
7843829_0      0.239      0      2.800      0      0
7843829_1      0.234      0      2.805      0      0
7843829_2      0.228      0      2.810      0      0
7843829_3      0.223      0      2.815      0      0
7843829_4      0.217      0      2.819      0      0
7843829_5      0.212      0      2.824      0      0
7843829_6      0.206      0      2.829      0      0
7843829_7      0.201      0      2.833      0      0
7843829_8      0.195      0      2.838      0      0
7843829_9      0.190      0      2.843      0      0
7843829_10      0.184      0      2.848      0      0
7843829_11      0.179      0      2.852      0      0
7843829_12      0.173      0      2.857      0      0
7843829_13      0.168      0      2.862      0      0
7843829_14      0.162      0      2.866      0      0
7843829_15      0.157      0      2.871      0      0
7843829_16      0.151      0      2.876      0      0
7843829_17      0.146      0      2.881      0      0
7843829_18      0.140      0      2.885      0      0
7843829_19      0.135      0      2.890      0      0
7843829_20      0.129      0      2.895      0      0
7843829_21      0.124      0      2.900      0      0
7843829_22      0.118      0      2.905      0      0
7843829_23      0.113      0      2.909      0      0
7843829_24      0.107      0      2.914      0      0
7843829_25      0.102      0      2.919      0      0
7843829_26      0.096      0      2.924      0      0
7843829_27      0.091      0      2.928      0      0
7843829_28      0.085      0      2.933      0      0
7843829_29      0.080      0      2.938      0      0
7843829_30      0.074      0      2.943      0      0
7843829_31      0.069      0      2.948      0      0
7843829_32      0.063      0      2.952      0      0
7843829_33      0.058      0      2.957      0      0
7843829_34      0.052      0      2.962      0      0
7843829_35      0.047      0      2.967      0      0
7843829_36      0.041      0      2.972      0      0
7843197_0      0.246      0      2.793      0      0
7843181_0      0.551      0      2.549      0      0
7843181_1      0.545      0      2.553      0      0
7843181_2      0.540      0      2.557      0      0
7843181_3      0.535      0      2.561      0      0
7843181_4      0.530      0      2.565      0      0
7843181_5      0.525      0      2.569      0      0
7843181_6      0.520      0      2.573      0      0
7843181_7      0.515      0      2.577      0      0
7843181_8      0.510      0      2.581      0      0
7843181_9      0.505      0      2.585      0      0
7843181_10      0.500      0      2.589      0      0
7843181_11      0.495      0      2.593      0      0
7843181_12      0.490      0      2.597      0      0
7843181_13      0.485      0      2.601      0      0
7843181_14      0.480      0      2.605      0      0
7843181_15      0.475      0      2.609      0      0
7843181_16      0.470      0      2.613      0      0
7843181_17      0.465      0      2.617      0      0
7843181_18      0.460      0      2.621      0      0
7843181_19      0.455      0      2.625      0      0
7843181_20      0.450      0      2.629      0      0
7843181_21      0.445      0      2.633      0      0
7843181_22      0.440      0      2.637      0      0
7843181_23      0.435      0      2.641      0      0
7843181_24      0.430      0      2.645      0      0
7843181_25      0.424      0      2.649      0      0
7843181_26      0.419      0      2.653      0      0
7843181_27      0.414      0      2.657      0      0
7843181_28      0.409      0      2.661      0      0
7843181_29      0.404      0      2.665      0      0
7843181_30      0.399      0      2.670      0      0
7843181_31      0.394      0      2.674      0      0
7843181_32      0.389      0      2.678      0      0
7843181_33      0.384      0      2.682      0      0
7843181_34      0.379      0      2.686      0      0
7843181_35      0.374      0      2.690      0      0
7843181_36      0.369      0      2.694      0      0
7843181_37      0.364      0      2.698      0      0
7843181_38      0.359      0      2.702      0      0
7843181_39      0.354      0      2.707      0      0
7843181_40      0.349      0      2.711      0      0
7843181_41      0.344      0      2.715      0      0
7843181_42      0.339      0      2.719      0      0
7843181_43      0.334      0      2.723      0      0
7843181_44      0.329      0      2.727      0      0
7843181_45      0.324      0      2.731      0      0
7843181_46      0.319      0      2.736      0      0
7843181_47      0.314      0      2.740      0      0
7843181_48      0.309      0      2.744      0      0
7843181_49      0.303      0      2.748      0      0
7843181_50      0.298      0      2.752      0      0
7843181_51      0.293      0      2.756      0      0
7843181_52      0.288      0      2.761      0      0
7843181_53      0.283      0      2.765      0      0
7843181_54      0.278      0      2.769      0      0
7843181_55      0.273      0      2.773      0      0
7843181_56      0.268      0      2.777      0      0
7843181_57      0.263      0      2.782      0      0
7843181_58      0.258      0      2.786      0      0
7843181_59      0.253      0      2.790      0      0
7843177_0      1.306      0      0.863      0      0
7847707_0      0.601      0      2.210      0      0
7847707_1      0.600      0      2.209      0      0
7847707_2      0.598      0      2.209      0      0
7847707_3      0.597      0      2.209      0      0
7847707_4      0.595      0      2.209      0      0
7847707_5      0.594      0      2.209      0      0
7847707_6      0.592      0      2.209      0      0
7847707_7      0.591      0      2.209      0      0
7847707_8      0.589      0      2.209      0      0
7847707_9      0.588      0      2.209      0      0
7847707_10      0.586      0      2.209      0      0
7847707_11      0.585      0      2.209      0      0
7847707_12      0.583      0      2.209      0      0
7847707_13      0.582      0      2.209      0      0
7847707_14      0.581      0      2.209      0      0
7847707_15      0.579      0      2.209      0      0
7847707_16      0.578      0      2.209      0      0
7847707_17      0.576      0      2.209      0      0
7847707_18      0.575      0      2.208      0      0
7847707_19      0.573      0      2.208      0      0
7847707_20      0.572      0      2.208      0      0
7847707_21      0.570      0      2.208      0      0
7847707_22      0.569      0      2.208      0      0
7847707_23      0.567      0      2.208      0      0
7847707_24      0.566      0      2.208      0      0
7847707_25      0.564      0      2.208      0      0
7847707_26      0.563      0      2.208      0      0
7847707_27      0.562      0      2.208      0      0
7847707_28      0.560      0      2.208      0      0
7847707_29      0.559      0      2.208      0      0
7847707_30      0.557      0      2.208      0      0
7847431_0      13.369      0      0.407      0      0
7847431_1      13.015      0      0.407      0      0
7847431_2      12.660      0      0.407      0      0
7847431_3      12.306      0      0.407      0      0
7847431_4      11.951      0      0.407      0      0
7847431_5      11.597      0      0.407      0      0
7847431_6      11.242      0      0.407      0      0
7847431_7      10.888      0      0.407      0      0
7847431_8      10.533      0      0.407      0      0
7847431_9      10.179      0      0.407      0      0
7847431_10      9.825      0      0.407      0      0
7847431_11      9.470      0      0.407      0      0
7847431_12      9.116      0      0.407      0      0
7847431_13      8.761      0      0.407      0      0
7847431_14      8.407      0      0.407      0      0
7847431_15      8.052      0      0.407      0      0
7847431_16      7.698      0      0.407      0      0
7847431_17      7.343      0      0.407      0      0
7847431_18      6.989      0      0.407      0      0
7847431_19      6.634      0      0.407      0      0
7847431_20      6.280      0      0.407      0      0
7847431_21      5.925      0      0.407      0      0
7847431_22      5.571      0      0.407      0      0
7847431_23      5.216      0      0.407      0      0
7847431_24      4.862      0      0.407      0      0
7847431_25      4.507      0      0.407      0      0
7847431_26      4.153      0      0.407      0      0
7847431_27      3.798      0      0.407      0      0
7847431_28      3.444      0      0.408      0      0
7847431_29      3.089      0      0.401      0      0
7847431_30      2.735      0      0.454      0      0
7847431_31      2.380      0      0.675      0      0
7847431_32      2.026      0      0.993      0      0
7847431_33      1.671      0      1.336      0      0
7847431_34      1.317      0      1.686      0      0
7847431_35      0.963      0      2.038      0      0
7847423_0      13.739      0      0.848      0      0
7847423_1      13.738      0      0.818      0      0
7847423_2      13.736      0      0.783      0      0
7847423_3      13.735      0      0.742      0      0
7847423_4      13.734      0      0.692      0      0
7847423_5      13.732      0      0.624      0      0
7847423_6      13.731      0      0.508      0      0
7847425_0      13.754      0      0.311      0      0
7847425_1      13.752      0      0.306      0      0
7847425_2      13.751      0      0.301      0      0
7847425_3      13.749      0      0.296      0      0
7847425_4      13.748      0      0.290      0      0
7847425_5      13.746      0      0.284      0      0
7847425_6      13.745      0      0.277      0      0
7847425_7      13.743      0      0.269      0      0
7847425_8      13.742      0      0.261      0      0
7847419_0      13.769      0      1.140      0      0
7847419_1      13.768      0      1.130      0      0
7847419_2      13.766      0      1.119      0      0
7847419_3      13.765      0      1.108      0      0
7847419_4      13.763      0      1.097      0      0
7847419_5      13.762      0      1.085      0      0
7847419_6      13.761      0      1.072      0      0
7847419_7      13.759      0      1.059      0      0
7847419_8      13.758      0      1.046      0      0
7847419_9      13.756      0      1.032      0      0
7847419_10      13.755      0      1.017      0      0
7847419_11      13.753      0      1.001      0      0
7847419_12      13.752      0      0.984      0      0
7847419_13      13.751      0      0.967      0      0
7847419_14      13.749      0      0.948      0      0
7847419_15      13.748      0      0.928      0      0
7847419_16      13.746      0      0.906      0      0
7847419_17      13.745      0      0.882      0      0
7847419_18      13.743      0      0.855      0      0
7847419_19      13.742      0      0.826      0      0
7847417_0      13.807      0      1.335      0      0
7847417_1      13.806      0      1.329      0      0
7847417_2      13.804      0      1.323      0      0
7847417_3      13.803      0      1.317      0      0
7847417_4      13.801      0      1.311      0      0
7847417_5      13.800      0      1.305      0      0
7847417_6      13.798      0      1.299      0      0
7847417_7      13.797      0      1.293      0      0
7847417_8      13.795      0      1.286      0      0
7847417_9      13.794      0      1.280      0      0
7847417_10      13.793      0      1.273      0      0
7847417_11      13.791      0      1.266      0      0
7847417_12      13.790      0      1.259      0      0
7847417_13      13.788      0      1.252      0      0
7847417_14      13.787      0      1.245      0      0
7847417_15      13.785      0      1.237      0      0
7847417_16      13.784      0      1.229      0      0
7847417_17      13.782      0      1.222      0      0
7847417_18      13.781      0      1.214      0      0
7847417_19      13.779      0      1.205      0      0
7847417_20      13.778      0      1.197      0      0
7847417_21      13.777      0      1.188      0      0
7847417_22      13.775      0      1.179      0      0
7847417_23      13.774      0      1.170      0      0
7847417_24      13.772      0      1.160      0      0
7847411_0      13.817      0      1.372      0      0
7847411_1      13.816      0      1.367      0      0
7847411_2      13.815      0      1.362      0      0
7847411_3      13.813      0      1.357      0      0
7847411_4      13.812      0      1.351      0      0
7847411_5      13.810      0      1.346      0      0
7847401_0      13.843      0      1.450      0      0
7847401_1      13.841      0      1.446      0      0
7847401_2      13.840      0      1.441      0      0
7847401_3      13.838      0      1.437      0      0
7847401_4      13.837      0      1.433      0      0
7847401_5      13.835      0      1.429      0      0
7847401_6      13.834      0      1.424      0      0
7847401_7      13.832      0      1.420      0      0
7847401_8      13.831      0      1.416      0      0
7847401_9      13.829      0      1.411      0      0
7847401_10      13.828      0      1.406      0      0
7847401_11      13.826      0      1.402      0      0
7847401_12      13.825      0      1.397      0      0
7847401_13      13.823      0      1.392      0      0
7847401_14      13.822      0      1.387      0      0
7847401_15      13.820      0      1.382      0      0
7847393_0      13.853      0      1.476      0      0
7847393_1      13.851      0      1.472      0      0
7847393_2      13.850      0      1.469      0      0
7847393_3      13.849      0      1.465      0      0
7847393_4      13.847      0      1.462      0      0
7847393_5      13.846      0      1.458      0      0
7847391_0      13.864      0      1.503      0      0
7847391_1      13.863      0      1.500      0      0
7847391_2      13.861      0      1.497      0      0
7847391_3      13.860      0      1.493      0      0
7847391_4      13.858      0      1.490      0      0
7847391_5      13.857      0      1.487      0      0
7847391_6      13.856      0      1.483      0      0
7847387_0      13.907      0      1.590      0      0
7847387_1      13.905      0      1.587      0      0
7847387_2      13.904      0      1.585      0      0
7847387_3      13.902      0      1.582      0      0
7847387_4      13.901      0      1.579      0      0
7847387_5      13.899      0      1.576      0      0
7847387_6      13.898      0      1.574      0      0
7847387_7      13.896      0      1.571      0      0
7847387_8      13.895      0      1.568      0      0
7847387_9      13.893      0      1.565      0      0
7847387_10      13.892      0      1.563      0      0
7847387_11      13.890      0      1.560      0      0
7847387_12      13.889      0      1.557      0      0
7847387_13      13.887      0      1.554      0      0
7847387_14      13.886      0      1.551      0      0
7847387_15      13.885      0      1.548      0      0
7847387_16      13.883      0      1.545      0      0
7847387_17      13.882      0      1.542      0      0
7847387_18      13.880      0      1.539      0      0
7847387_19      13.879      0      1.536      0      0
7847387_20      13.877      0      1.533      0      0
7847387_21      13.876      0      1.530      0      0
7847387_22      13.874      0      1.526      0      0
7847387_23      13.873      0      1.523      0      0
7847387_24      13.871      0      1.520      0      0
7847387_25      13.870      0      1.517      0      0
7847387_26      13.868      0      1.513      0      0
7847387_27      13.867      0      1.510      0      0
7847377_0      13.948      0      1.261      0      0
7847377_1      13.946      0      1.257      0      0
7847377_2      13.945      0      1.253      0      0
7847377_3      13.943      0      1.249      0      0
7847377_4      13.942      0      1.244      0      0
7847377_5      13.940      0      1.240      0      0
7847377_6      13.939      0      1.235      0      0
7847377_7      13.938      0      1.231      0      0
7847377_8      13.936      0      1.226      0      0
7847377_9      13.935      0      1.222      0      0
7847377_10      13.933      0      1.217      0      0
7847377_11      13.932      0      1.212      0      0
7847377_12      13.930      0      1.207      0      0
7847377_13      13.929      0      1.202      0      0
7847377_14      13.927      0      1.197      0      0
7847377_15      13.926      0      1.192      0      0
7847377_16      13.924      0      1.187      0      0
7847377_17      13.923      0      1.181      0      0
7847377_18      13.921      0      1.176      0      0
7847377_19      13.920      0      1.170      0      0
7847377_20      13.918      0      1.164      0      0
7847377_21      13.917      0      1.159      0      0
7847377_22      13.915      0      1.153      0      0
7847377_23      13.914      0      1.147      0      0
7847377_24      13.912      0      1.140      0      0
7847377_25      13.911      0      1.134      0      0
7847377_26      13.910      0      1.128      0      0
7847373_0      13.971      0      0.764      0      0
7847373_1      13.969      0      0.762      0      0
7847373_2      13.968      0      0.760      0      0
7847373_3      13.966      0      0.758      0      0
7847373_4      13.965      0      0.756      0      0
7847373_5      13.963      0      0.753      0      0
7847373_6      13.962      0      0.751      0      0
7847373_7      13.960      0      0.749      0      0
7847373_8      13.959      0      0.747      0      0
7847373_9      13.957      0      0.744      0      0
7847373_10      13.956      0      0.742      0      0
7847373_11      13.954      0      0.739      0      0
7847373_12      13.953      0      0.737      0      0
7847373_13      13.951      0      0.734      0      0
7847373_14      13.950      0      0.732      0      0
7847373_15      13.948      0      0.729      0      0
7847373_16      13.947      0      0.727      0      0
7847373_17      13.945      0      0.724      0      0
7847373_18      13.944      0      0.721      0      0
7847373_19      13.942      0      0.718      0      0
7847373_20      13.941      0      0.715      0      0
7847373_21      13.939      0      0.712      0      0
7847373_22      13.938      0      0.709      0      0
7847373_23      13.936      0      0.706      0      0
7847373_24      13.935      0      0.703      0      0
7847373_25      13.933      0      0.700      0      0
7847373_26      13.932      0      0.697      0      0
7847373_27      13.930      0      0.693      0      0
7847373_28      13.929      0      0.690      0      0
7847373_29      13.927      0      0.687      0      0
7847373_30      13.926      0      0.683      0      0
7847373_31      13.924      0      0.679      0      0
7847373_32      13.923      0      0.676      0      0
7847373_33      13.921      0      0.672      0      0
7847373_34      13.920      0      0.668      0      0
7847373_35      13.918      0      0.664      0      0
7847373_36      13.917      0      0.660      0      0
7847373_37      13.916      0      0.655      0      0
7847373_38      13.914      0      0.651      0      0
7847373_39      13.913      0      0.646      0      0
7847373_40      13.911      0      0.642      0      0
7847373_41      13.910      0      0.637      0      0
7846483_0      14.015      0      0.814      0      0
7846483_1      14.013      0      0.813      0      0
7846483_2      14.012      0      0.812      0      0
7846483_3      14.010      0      0.810      0      0
7846483_4      14.009      0      0.809      0      0
7846483_5      14.008      0      0.807      0      0
7846483_6      14.006      0      0.806      0      0
7846483_7      14.005      0      0.804      0      0
7846483_8      14.003      0      0.803      0      0
7846483_9      14.002      0      0.801      0      0
7846483_10      14.000      0      0.800      0      0
7846483_11      13.999      0      0.798      0      0
7846483_12      13.997      0      0.797      0      0
7846483_13      13.996      0      0.795      0      0
7846483_14      13.994      0      0.793      0      0
7846483_15      13.993      0      0.792      0      0
7846483_16      13.991      0      0.790      0      0
7846483_17      13.990      0      0.788      0      0
7846483_18      13.988      0      0.787      0      0
7846483_19      13.987      0      0.785      0      0
7846483_20      13.985      0      0.783      0      0
7846483_21      13.984      0      0.781      0      0
7846483_22      13.983      0      0.780      0      0
7846483_23      13.981      0      0.778      0      0
7846483_24      13.980      0      0.776      0      0
7846483_25      13.978      0      0.774      0      0
7846483_26      13.977      0      0.772      0      0
7846483_27      13.975      0      0.770      0      0
7846483_28      13.974      0      0.768      0      0
7846465_0      21.402      0      0.107      0      0
7846465_1      21.208      0      0.107      0      0
7846465_2      21.014      0      0.107      0      0
7846465_3      20.819      0      0.107      0      0
7846465_4      20.625      0      0.107      0      0
7846465_5      20.431      0      0.107      0      0
7846465_6      20.236      0      0.107      0      0
7846465_7      20.042      0      0.107      0      0
7846465_8      19.848      0      0.107      0      0
7846465_9      19.653      0      0.107      0      0
7846465_10      19.459      0      0.107      0      0
7846465_11      19.264      0      0.107      0      0
7846465_12      19.070      0      0.107      0      0
7846465_13      18.876      0      0.107      0      0
7846465_14      18.681      0      0.107      0      0
7846465_15      18.487      0      0.107      0      0
7846465_16      18.293      0      0.107      0      0
7846465_17      18.098      0      0.107      0      0
7846465_18      17.904      0      0.107      0      0
7846465_19      17.710      0      0.107      0      0
7846465_20      17.515      0      0.107      0      0
7846465_21      17.321      0      0.107      0      0
7846465_22      17.127      0      0.107      0      0
7846465_23      16.932      0      0.107      0      0
7846465_24      16.738      0      0.107      0      0
7846465_25      16.544      0      0.107      0      0
7846465_26      16.349      0      0.107      0      0
7846465_27      16.155      0      0.107      0      0
7846465_28      15.961      0      0.107      0      0
7846465_29      15.766      0      0.107      0      0
7846465_30      15.572      0      0.107      0      0
7846465_31      15.377      0      0.107      0      0
7846465_32      15.183      0      0.108      0      0
7846465_33      14.989      0      0.107      0      0
7846465_34      14.794      0      0.109      0      0
7846465_35      14.600      0      0.105      0      0
7846465_36      14.406      0      0.113      0      0
7846465_37      14.211      0      0.098      0      0
7846643_0      14.056      0      0.770      0      0
7846643_1      14.054      0      0.769      0      0
7846643_2      14.053      0      0.768      0      0
7846643_3      14.051      0      0.767      0      0
7846643_4      14.050      0      0.766      0      0
7846643_5      14.049      0      0.765      0      0
7846643_6      14.047      0      0.763      0      0
7846643_7      14.046      0      0.762      0      0
7846643_8      14.044      0      0.761      0      0
7846643_9      14.043      0      0.760      0      0
7846643_10      14.041      0      0.758      0      0
7846643_11      14.040      0      0.757      0      0
7846643_12      14.038      0      0.756      0      0
7846643_13      14.037      0      0.754      0      0
7846643_14      14.035      0      0.753      0      0
7846643_15      14.034      0      0.752      0      0
7846643_16      14.032      0      0.750      0      0
7846643_17      14.031      0      0.749      0      0
7846643_18      14.030      0      0.748      0      0
7846643_19      14.028      0      0.746      0      0
7846643_20      14.027      0      0.745      0      0
7846643_21      14.025      0      0.743      0      0
7846643_22      14.024      0      0.742      0      0
7846643_23      14.022      0      0.741      0      0
7846643_24      14.021      0      0.739      0      0
7846643_25      14.019      0      0.738      0      0
7846643_26      14.018      0      0.736      0      0
7846439_0      14.078      0      0.786      0      0
7846439_1      14.076      0      0.785      0      0
7846439_2      14.075      0      0.784      0      0
7846439_3      14.073      0      0.783      0      0
7846439_4      14.072      0      0.782      0      0
7846439_5      14.070      0      0.781      0      0
7846439_6      14.069      0      0.780      0      0
7846439_7      14.068      0      0.779      0      0
7846439_8      14.066      0      0.778      0      0
7846439_9      14.065      0      0.777      0      0
7846439_10      14.063      0      0.776      0      0
7846439_11      14.062      0      0.775      0      0
7846439_12      14.060      0      0.774      0      0
7846439_13      14.059      0      0.773      0      0
7846433_0      14.097      0      0.798      0      0
7846433_1      14.095      0      0.797      0      0
7846433_2      14.094      0      0.796      0      0
7846433_3      14.092      0      0.795      0      0
7846433_4      14.091      0      0.794      0      0
7846433_5      14.089      0      0.794      0      0
7846433_6      14.088      0      0.793      0      0
7846433_7      14.087      0      0.792      0      0
7846433_8      14.085      0      0.791      0      0
7846433_9      14.084      0      0.790      0      0
7846433_10      14.082      0      0.789      0      0
7846433_11      14.081      0      0.788      0      0
7846421_0      14.236      0      0.819      0      0
7846421_1      14.223      0      0.829      0      0
7846421_2      14.211      0      0.839      0      0
7846421_3      14.198      0      0.849      0      0
7846421_4      14.186      0      0.859      0      0
7846421_5      14.173      0      0.869      0      0
7846421_6      14.161      0      0.880      0      0
7846421_7      14.148      0      0.890      0      0
7846421_8      14.136      0      0.900      0      0
7846421_9      14.123      0      0.911      0      0
7846421_10      14.111      0      0.922      0      0
7846419_0      14.120      0      0.369      0      0
7846419_1      14.119      0      0.365      0      0
7846419_2      14.117      0      0.361      0      0
7846419_3      14.116      0      0.357      0      0
7846419_4      14.114      0      0.352      0      0
7846419_5      14.113      0      0.347      0      0
7846419_6      14.111      0      0.342      0      0
7846419_7      14.110      0      0.336      0      0
7846419_8      14.108      0      0.330      0      0
7846419_9      14.107      0      0.323      0      0
7846419_10      14.106      0      0.316      0      0
7846419_11      14.104      0      0.308      0      0
7846419_12      14.103      0      0.299      0      0
7846419_13      14.101      0      0.289      0      0
7846419_14      14.100      0      0.278      0      0