; Downloaded from OpenSWMM topic https://www.openswmm.org/Thread/16763/parallel-pump-configuration on 28-Mar-2022 02:56
;File: "ParallelPumpConfiguration.inp"

[TITLE]
Illustration of a simple parallel pump configuration in SWMM5. 

[OPTIONS]
FLOW_UNITS           CFS
INFILTRATION         MODIFIED_GREEN_AMPT
FLOW_ROUTING         DYNWAVE
LINK_OFFSETS         DEPTH
MIN_SLOPE            0
ALLOW_PONDING        YES
SKIP_STEADY_STATE    NO
START_DATE           01/01/2019
START_TIME           00:00:00
REPORT_START_DATE    01/01/2019
REPORT_START_TIME    00:00:00
END_DATE             01/01/2019
END_TIME             01:30:00
SWEEP_START          01/01
SWEEP_END            12/31
DRY_DAYS             0
REPORT_STEP          00:00:01
WET_STEP             00:05:00
DRY_STEP             00:05:00
ROUTING_STEP         0:00:01 
INERTIAL_DAMPING     NONE
NORMAL_FLOW_LIMITED  BOTH
FORCE_MAIN_EQUATION  H-W
VARIABLE_STEP        0.00
LENGTHENING_STEP     0
MIN_SURFAREA         0
MAX_TRIALS           8
HEAD_TOLERANCE       0.005
SYS_FLOW_TOL         5
LAT_FLOW_TOL         5
MINIMUM_STEP         0.5
THREADS              4

[JUNCTIONS]
;;Name           Elevation  MaxDepth   InitDepth  SurDepth   Aponded   
DischargeLine    10         4          0          0          0         

[OUTFALLS]
;;Name           Elevation  Type       Stage Data       Gated    Route To        
OF1              0          FREE                        NO                       

[STORAGE]
;;Name           Elev.    MaxDepth   InitDepth  Shape      Curve Name/Params   Fevap    Psi      Ksat     IMD     
WetWell          2        12         0          TABULAR    sWetWell                     0        0       

[CONDUITS]
;;Name           From Node        To Node          Length     Roughness  InOffset   OutOffset  InitFlow   MaxFlow   
Pipe             DischargeLine    OF1              537.25     0.014      0          0          0          0         

[PUMPS]
;;Name           From Node        To Node          Pump Curve       Status   Startup Shutoff 
Lag              WetWell          DischargeLine    PumpCurve1       OFF      4.3      2       
Lead             WetWell          DischargeLine    PumpCurve1       OFF      3.6      2       

[XSECTIONS]
;;Link           Shape        Geom1            Geom2      Geom3      Geom4      Barrels    Culvert   
Pipe             CIRCULAR     1.5              0          0          0          1                    

[INFLOWS]
;;Node           Constituent      Time Series      Type     Mfactor  Sfactor  Baseline Pattern
WetWell          FLOW             WetWellInflow    FLOW     1.0      1        0       

[CURVES]
;;Name           Type       X-Value    Y-Value   
PumpCurve1       Pump3      0.1        7.8       
PumpCurve1                  1.5        7.7       
PumpCurve1                  7.5        7         
PumpCurve1                  13.5       6         
PumpCurve1                  18.5       5         
PumpCurve1                  20         4.5       
;
sWetWell         Storage    0          35        
sWetWell                    8          35        
sWetWell                    8.01       40        
sWetWell                    12         50        

[TIMESERIES]
;;Name           Date       Time       Value     
WetWellInflow               0:00       0         
WetWellInflow               0:00:01    5         
WetWellInflow               0:14:53    5         
WetWellInflow               0:14:54    0         
WetWellInflow               0:30       0         
WetWellInflow               0:30:01    7.5       
WetWellInflow               0:45:01    7.5       
WetWellInflow               0:45:02    0         
WetWellInflow               1:00       0         
WetWellInflow               1:00:01    10        
WetWellInflow               1:15:01    10        
WetWellInflow               1:15:02    0         

[REPORT]
INPUT      YES
CONTROLS   YES
SUBCATCHMENTS ALL
NODES ALL
LINKS ALL

[MAP]
DIMENSIONS -8239557.778 4970516.511 -8239349.616 4970634.411
Units      Meters

[COORDINATES]
;;Node           X-Coord            Y-Coord           
DischargeLine    -8239360.731       4970521.870       
OF1              -8239548.316       4970629.052       
WetWell          -8239361.746       4970538.493       

[VERTICES]
;;Link           X-Coord            Y-Coord           
Lag              -8239360.011       4970537.141       
Lag              -8239359.078       4970524.679       
Lead             -8239363.421       4970537.060       
Lead             -8239362.487       4970524.598       

