[TITLE]
;;Project Title/Notes

[OPTIONS]
;;Option             Value
FLOW_UNITS           CMS
INFILTRATION         HORTON
FLOW_ROUTING         DYNWAVE
LINK_OFFSETS         DEPTH
MIN_SLOPE            0
ALLOW_PONDING        NO
SKIP_STEADY_STATE    NO

START_DATE           06/14/2021
START_TIME           00:00:00
REPORT_START_DATE    06/14/2021
REPORT_START_TIME    00:00:00
END_DATE             06/14/2021
END_TIME             12:00:00
SWEEP_START          01/01
SWEEP_END            12/31
DRY_DAYS             0
REPORT_STEP          00:01:00
WET_STEP             00:05:00
DRY_STEP             01:00:00
ROUTING_STEP         0:00:01 
RULE_STEP            00:00:00

INERTIAL_DAMPING     NONE
NORMAL_FLOW_LIMITED  BOTH
FORCE_MAIN_EQUATION  H-W
SURCHARGE_METHOD     SLOT
VARIABLE_STEP        0.75
LENGTHENING_STEP     0
MIN_SURFAREA         1.167
MAX_TRIALS           20
HEAD_TOLERANCE       0.0015
SYS_FLOW_TOL         5
LAT_FLOW_TOL         5
MINIMUM_STEP         0.5
THREADS              1

[EVAPORATION]
;;Data Source    Parameters
;;-------------- ----------------
CONSTANT         0.0
DRY_ONLY         NO

[JUNCTIONS]
;;Name           Elevation  MaxDepth   InitDepth  SurDepth   Aponded   
;;-------------- ---------- ---------- ---------- ---------- ----------
J0               30          0          0.0        2.0        0    
J1               28          0          0.0        1000.0         0 
J2               26          0          0.0        1000.0         0  
J3               24          0          0.0        1000.0         0  
J4               22          0          0.0        1000.0         0  
J5               20          0          0.0        1000.0         0  
J6               18          0          0.0        1000.0         0  
J7               16          0          0.0        1000.0         0  
J8               14          0          0.0        1000.0         0  
J9               12          0          0.0        1000.0         0   

[OUTFALLS]
;;Name           Elevation  Type       Stage Data       Gated    Route To        
;;-------------- ---------- ---------- ---------------- -------- ----------------
Out1             10.0          FREE                      NO                   

[CONDUITS]
;;Name           From Node        To Node          Length     Roughness  InOffset   OutOffset  InitFlow   MaxFlow   
;;-------------- ---------------- ---------------- ---------- ---------- ---------- ---------- ---------- ----------
C1               J0               J1                1000           0.015      0          0          0.0      0      
C2               J1               J2                1000           0.015      0          0          0.0      0   
C3               J2               J3                1000           0.015      0          0          0.0      0   
C4               J3               J4                1000           0.015      0          0          0.0      0   
C5               J4               J5                1000           0.015      0          0          0.0      0   
C6               J5               J6                1000           0.015      0          0          0.0      0   
C7               J6               J7                1000           0.015      0          0          0.0      0   
C8               J7               J8                1000           0.015      0          0          0.0      0   
C9               J8               J9                1000           0.015      0          0          0.0      0   
C10              J9               Out1              1000           0.015      0          0          0.0      0       


[XSECTIONS]
;;Link           Shape        Geom1            Geom2      Geom3      Geom4      Barrels    Culvert   
;;-------------- ------------ ---------------- ---------- ---------- ---------- ---------- ----------
C1               RECT_OPEN     1.5            1.5         0          0          1  
C2               RECT_OPEN     1.5            1.5         0          0          1                       
C3               RECT_OPEN     1.5            1.5         0          0          1         
C4               RECT_OPEN     1.5            1.5         0          0          1  
C5               RECT_OPEN     1.5            1.5         0          0          1 
C6               RECT_OPEN     1.5            1.5         0          0          1  
C7               RECT_OPEN     1.5            1.5         0          0          1  
C8               RECT_OPEN     1.5            1.5         0          0          1  
C9               RECT_OPEN     1.5            1.5         0          0          1  
C10              RECT_OPEN     1.5            1.5         0          0          1      

[INFLOWS]
;;Node           Constituent      Time Series      Type     Mfactor  Sfactor  Baseline Pattern
;;-------------- ---------------- ---------------- -------- -------- -------- -------- --------
J0                FLOW             "630016810"               FLOW       

[TIMESERIES]
;;Name           Date       Time       Value     
;;-------------- ---------- ---------- ----------
630016810                   0.0        0.0  ; / 4.353e-01 
630016810                   0.01       0.0
630016810                   0.05       0.2
630016810                   1.0        0.2
630016810                   1.10       0.0
630016810                   23.9       0.0

[REPORT]
;;Reporting Options
SUBCATCHMENTS ALL
NODES ALL
LINKS ALL

[TAGS]

[MAP]
DIMENSIONS 10000000000.000 10000000000.000 -10000000000.000 -10000000000.000
Units      None

[COORDINATES]
;;Node           X-Coord            Y-Coord           
;;-------------- ------------------ ------------------

[VERTICES]
;;Link           X-Coord            Y-Coord           
;;-------------- ------------------ ------------------

[Polygons]

[PROFILES]
;;Name           Links     
;;-------------- ----------
"profile_1"   C1 C2 C3 C4 C5
"profile_1"   C1 C2 C3 C4 C5
"profile_1"   C6 C7 C8 C9 C10
