[TITLE]
;;Project Title/Notes
Lavaca_Sample

[OPTIONS]
;;Option             Value
FLOW_UNITS           CMS
INFILTRATION         HORTON
FLOW_ROUTING         KINWAVE
LINK_OFFSETS         DEPTH
MIN_SLOPE            0
ALLOW_PONDING        NO
SKIP_STEADY_STATE    YES

START_DATE           01/01/2000
START_TIME           00:00:00
REPORT_START_DATE    01/01/2000
REPORT_START_TIME    00:00:00
END_DATE             05/31/2000
END_TIME             00:00:00
SWEEP_START          1/1
SWEEP_END            12/31
DRY_DAYS             0
REPORT_STEP          00:05:00
WET_STEP             00:15:00
DRY_STEP             01:00:00
ROUTING_STEP         0:01:00 

INERTIAL_DAMPING     PARTIAL
NORMAL_FLOW_LIMITED  BOTH
FORCE_MAIN_EQUATION  D-W
VARIABLE_STEP        0.75
LENGTHENING_STEP     0
MIN_SURFAREA         12.557
MAX_TRIALS           8
HEAD_TOLERANCE       0.005
SYS_FLOW_TOL         2
LAT_FLOW_TOL         2
MINIMUM_STEP         0.5
THREADS              1

[EVAPORATION]
;;Data Source    Parameters
;;-------------- ----------------
CONSTANT         0.0
DRY_ONLY         NO

[JUNCTIONS]
;;Name           Elevation  MaxDepth   InitDepth  SurDepth   Aponded   
;;-------------- ---------- ---------- ---------- ---------- ----------
7843187_0        0.018      0          1.0        0          0         
7843187_1        0.015      0          1.0        0          0         
7843187_2        0.012      0          1.0        0          0         
7843187_3        0.009      0          1.0        0          0         
7843187_4        0.006      0          1.0        0          0         
7843187_5        0.003      0          1.0        0          0         
7843185_0        0.034      0          1.0        0          0         
7843185_1        0.033      0          1.0        0          0         
7843185_2        0.031      0          1.0        0          0         
7843185_3        0.030      0          1.0        0          0         
7843185_4        0.028      0          1.0        0          0         
7843185_5        0.027      0          1.0        0          0         
7843185_6        0.025      0          1.0        0          0         
7843185_7        0.024      0          1.0        0          0         
7843185_8        0.022      0          1.0        0          0         
7843829_0        0.239      0          1.0        0          0         
7843829_1        0.234      0          1.0        0          0         
7843829_2        0.228      0          1.0        0          0         
7843829_3        0.223      0          1.0        0          0         
7843829_4        0.217      0          1.0        0          0         
7843829_5        0.212      0          1.0        0          0         
7843829_6        0.206      0          1.0        0          0         
7843829_7        0.201      0          1.0        0          0         
7843829_8        0.195      0          1.0        0          0         
7843829_9        0.190      0          1.0        0          0         
7843829_10       0.184      0          1.0        0          0         
7843829_11       0.179      0          1.0        0          0         
7843829_12       0.173      0          1.0        0          0         
7843829_13       0.168      0          1.0        0          0         
7843829_14       0.162      0          1.0        0          0         
7843829_15       0.157      0          1.0        0          0         
7843829_16       0.151      0          1.0        0          0         
7843829_17       0.146      0          1.0        0          0         
7843829_18       0.140      0          1.0        0          0         
7843829_19       0.135      0          1.0        0          0         
7843829_20       0.129      0          1.0        0          0         
7843829_21       0.124      0          1.0        0          0         
7843829_22       0.118      0          1.0        0          0         
7843829_23       0.113      0          1.0        0          0         
7843829_24       0.107      0          1.0        0          0         
7843829_25       0.102      0          1.0        0          0         
7843829_26       0.096      0          1.0        0          0         
7843829_27       0.091      0          1.0        0          0         
7843829_28       0.085      0          1.0        0          0         
7843829_29       0.080      0          1.0        0          0         
7843829_30       0.074      0          1.0        0          0         
7843829_31       0.069      0          1.0        0          0         
7843829_32       0.063      0          1.0        0          0         
7843829_33       0.058      0          1.0        0          0         
7843829_34       0.052      0          1.0        0          0         
7843829_35       0.047      0          1.0        0          0         
7843829_36       0.041      0          1.0        0          0         
7843197_0        0.246      0          1.0        0          0         
7843181_0        0.551      0          1.0        0          0         
7843181_1        0.545      0          1.0        0          0         
7843181_2        0.540      0          1.0        0          0         
7843181_3        0.535      0          1.0        0          0         
7843181_4        0.530      0          1.0        0          0         
7843181_5        0.525      0          1.0        0          0         
7843181_6        0.520      0          1.0        0          0         
7843181_7        0.515      0          1.0        0          0         
7843181_8        0.510      0          1.0        0          0         
7843181_9        0.505      0          1.0        0          0         
7843181_10       0.500      0          1.0        0          0         
7843181_11       0.495      0          1.0        0          0         
7843181_12       0.490      0          1.0        0          0         
7843181_13       0.485      0          1.0        0          0         
7843181_14       0.480      0          1.0        0          0         
7843181_15       0.475      0          1.0        0          0         
7843181_16       0.470      0          1.0        0          0         
7843181_17       0.465      0          1.0        0          0         
7843181_18       0.460      0          1.0        0          0         
7843181_19       0.455      0          1.0        0          0         
7843181_20       0.450      0          1.0        0          0         
7843181_21       0.445      0          1.0        0          0         
7843181_22       0.440      0          1.0        0          0         
7843181_23       0.435      0          1.0        0          0         
7843181_24       0.430      0          1.0        0          0         
7843181_25       0.424      0          1.0        0          0         
7843181_26       0.419      0          1.0        0          0         
7843181_27       0.414      0          1.0        0          0         
7843181_28       0.409      0          1.0        0          0         
7843181_29       0.404      0          1.0        0          0         
7843181_30       0.399      0          1.0        0          0         
7843181_31       0.394      0          1.0        0          0         
7843181_32       0.389      0          1.0        0          0         
7843181_33       0.384      0          1.0        0          0         
7843181_34       0.379      0          1.0        0          0         
7843181_35       0.374      0          1.0        0          0         
7843181_36       0.369      0          1.0        0          0         
7843181_37       0.364      0          1.0        0          0         
7843181_38       0.359      0          1.0        0          0         
7843181_39       0.354      0          1.0        0          0         
7843181_40       0.349      0          1.0        0          0         
7843181_41       0.344      0          1.0        0          0         
7843181_42       0.339      0          1.0        0          0         
7843181_43       0.334      0          1.0        0          0         
7843181_44       0.329      0          1.0        0          0         
7843181_45       0.324      0          1.0        0          0         
7843181_46       0.319      0          1.0        0          0         
7843181_47       0.314      0          1.0        0          0         
7843181_48       0.309      0          1.0        0          0         
7843181_49       0.303      0          1.0        0          0         
7843181_50       0.298      0          1.0        0          0         
7843181_51       0.293      0          1.0        0          0         
7843181_52       0.288      0          1.0        0          0         
7843181_53       0.283      0          1.0        0          0         
7843181_54       0.278      0          1.0        0          0         
7843181_55       0.273      0          1.0        0          0         
7843181_56       0.268      0          1.0        0          0         
7843181_57       0.263      0          1.0        0          0         
7843181_58       0.258      0          1.0        0          0         
7843181_59       0.253      0          1.0        0          0         
7843177_0        1.306      0          1.0        0          0         
7847707_0        0.601      0          1.0        0          0         
7847707_1        0.600      0          1.0        0          0         
7847707_2        0.598      0          1.0        0          0         
7847707_3        0.597      0          1.0        0          0         
7847707_4        0.595      0          1.0        0          0         
7847707_5        0.594      0          1.0        0          0         
7847707_6        0.592      0          1.0        0          0         
7847707_7        0.591      0          1.0        0          0         
7847707_8        0.589      0          1.0        0          0         
7847707_9        0.588      0          1.0        0          0         
7847707_10       0.586      0          1.0        0          0         
7847707_11       0.585      0          1.0        0          0         
7847707_12       0.583      0          1.0        0          0         
7847707_13       0.582      0          1.0        0          0         
7847707_14       0.581      0          1.0        0          0         
7847707_15       0.579      0          1.0        0          0         
7847707_16       0.578      0          1.0        0          0         
7847707_17       0.576      0          1.0        0          0         
7847707_18       0.575      0          1.0        0          0         
7847707_19       0.573      0          1.0        0          0         
7847707_20       0.572      0          1.0        0          0         
7847707_21       0.570      0          1.0        0          0         
7847707_22       0.569      0          1.0        0          0         
7847707_23       0.567      0          1.0        0          0         
7847707_24       0.566      0          1.0        0          0         
7847707_25       0.564      0          1.0        0          0         
7847707_26       0.563      0          1.0        0          0         
7847707_27       0.562      0          1.0        0          0         
7847707_28       0.560      0          1.0        0          0         
7847707_29       0.559      0          1.0        0          0         
7847707_30       0.557      0          1.0        0          0         
7847431_0        13.369     0          1.0        0          0         
7847431_1        13.015     0          1.0        0          0         
7847431_2        12.660     0          1.0        0          0         
7847431_3        12.306     0          1.0        0          0         
7847431_4        11.951     0          1.0        0          0         
7847431_5        11.597     0          1.0        0          0         
7847431_6        11.242     0          1.0        0          0         
7847431_7        10.888     0          1.0        0          0         
7847431_8        10.533     0          1.0        0          0         
7847431_9        10.179     0          1.0        0          0         
7847431_10       9.825      0          1.0        0          0         
7847431_11       9.470      0          1.0        0          0         
7847431_12       9.116      0          1.0        0          0         
7847431_13       8.761      0          1.0        0          0         
7847431_14       8.407      0          1.0        0          0         
7847431_15       8.052      0          1.0        0          0         
7847431_16       7.698      0          1.0        0          0         
7847431_17       7.343      0          1.0        0          0         
7847431_18       6.989      0          1.0        0          0         
7847431_19       6.634      0          1.0        0          0         
7847431_20       6.280      0          1.0        0          0         
7847431_21       5.925      0          1.0        0          0         
7847431_22       5.571      0          1.0        0          0         
7847431_23       5.216      0          1.0        0          0         
7847431_24       4.862      0          1.0        0          0         
7847431_25       4.507      0          1.0        0          0         
7847431_26       4.153      0          1.0        0          0         
7847431_27       3.798      0          1.0        0          0         
7847431_28       3.444      0          1.0        0          0         
7847431_29       3.089      0          1.0        0          0         
7847431_30       2.735      0          1.0        0          0         
7847431_31       2.380      0          1.0        0          0         
7847431_32       2.026      0          1.0        0          0         
7847431_33       1.671      0          1.0        0          0         
7847431_34       1.317      0          1.0        0          0         
7847431_35       0.963      0          1.0        0          0         
7847423_0        13.739     0          1.0        0          0         
7847423_1        13.738     0          1.0        0          0         
7847423_2        13.736     0          1.0        0          0         
7847423_3        13.735     0          1.0        0          0         
7847423_4        13.734     0          1.0        0          0         
7847423_5        13.732     0          1.0        0          0         
7847423_6        13.731     0          1.0        0          0         
7847425_0        13.754     0          1.0        0          0         
7847425_1        13.752     0          1.0        0          0         
7847425_2        13.751     0          1.0        0          0         
7847425_3        13.749     0          1.0        0          0         
7847425_4        13.748     0          1.0        0          0         
7847425_5        13.746     0          1.0        0          0         
7847425_6        13.745     0          1.0        0          0         
7847425_7        13.743     0          1.0        0          0         
7847425_8        13.742     0          1.0        0          0         
7847419_0        13.769     0          1.0        0          0         
7847419_1        13.768     0          1.0        0          0         
7847419_2        13.766     0          1.0        0          0         
7847419_3        13.765     0          1.0        0          0         
7847419_4        13.763     0          1.0        0          0         
7847419_5        13.762     0          1.0        0          0         
7847419_6        13.761     0          1.0        0          0         
7847419_7        13.759     0          1.0        0          0         
7847419_8        13.758     0          1.0        0          0         
7847419_9        13.756     0          1.0        0          0         
7847419_10       13.755     0          1.0        0          0         
7847419_11       13.753     0          1.0        0          0         
7847419_12       13.752     0          1.0        0          0         
7847419_13       13.751     0          1.0        0          0         
7847419_14       13.749     0          1.0        0          0         
7847419_15       13.748     0          1.0        0          0         
7847419_16       13.746     0          1.0        0          0         
7847419_17       13.745     0          1.0        0          0         
7847419_18       13.743     0          1.0        0          0         
7847419_19       13.742     0          1.0        0          0         
7847417_0        13.807     0          1.0        0          0         
7847417_1        13.806     0          1.0        0          0         
7847417_2        13.804     0          1.0        0          0         
7847417_3        13.803     0          1.0        0          0         
7847417_4        13.801     0          1.0        0          0         
7847417_5        13.800     0          1.0        0          0         
7847417_6        13.798     0          1.0        0          0         
7847417_7        13.797     0          1.0        0          0         
7847417_8        13.795     0          1.0        0          0         
7847417_9        13.794     0          1.0        0          0         
7847417_10       13.793     0          1.0        0          0         
7847417_11       13.791     0          1.0        0          0         
7847417_12       13.790     0          1.0        0          0         
7847417_13       13.788     0          1.0        0          0         
7847417_14       13.787     0          1.0        0          0         
7847417_15       13.785     0          1.0        0          0         
7847417_16       13.784     0          1.0        0          0         
7847417_17       13.782     0          1.0        0          0         
7847417_18       13.781     0          1.0        0          0         
7847417_19       13.779     0          1.0        0          0         
7847417_20       13.778     0          1.0        0          0         
7847417_21       13.777     0          1.0        0          0         
7847417_22       13.775     0          1.0        0          0         
7847417_23       13.774     0          1.0        0          0         
7847417_24       13.772     0          1.0        0          0         
7847411_0        13.817     0          1.0        0          0         
7847411_1        13.816     0          1.0        0          0         
7847411_2        13.815     0          1.0        0          0         
7847411_3        13.813     0          1.0        0          0         
7847411_4        13.812     0          1.0        0          0         
7847411_5        13.810     0          1.0        0          0         
7847401_0        13.843     0          1.0        0          0         
7847401_1        13.841     0          1.0        0          0         
7847401_2        13.840     0          1.0        0          0         
7847401_3        13.838     0          1.0        0          0         
7847401_4        13.837     0          1.0        0          0         
7847401_5        13.835     0          1.0        0          0         
7847401_6        13.834     0          1.0        0          0         
7847401_7        13.832     0          1.0        0          0         
7847401_8        13.831     0          1.0        0          0         
7847401_9        13.829     0          1.0        0          0         
7847401_10       13.828     0          1.0        0          0         
7847401_11       13.826     0          1.0        0          0         
7847401_12       13.825     0          1.0        0          0         
7847401_13       13.823     0          1.0        0          0         
7847401_14       13.822     0          1.0        0          0         
7847401_15       13.820     0          1.0        0          0         
7847393_0        13.853     0          1.0        0          0         
7847393_1        13.851     0          1.0        0          0         
7847393_2        13.850     0          1.0        0          0         
7847393_3        13.849     0          1.0        0          0         
7847393_4        13.847     0          1.0        0          0         
7847393_5        13.846     0          1.0        0          0         
7847391_0        13.864     0          1.0        0          0         
7847391_1        13.863     0          1.0        0          0         
7847391_2        13.861     0          1.0        0          0         
7847391_3        13.860     0          1.0        0          0         
7847391_4        13.858     0          1.0        0          0         
7847391_5        13.857     0          1.0        0          0         
7847391_6        13.856     0          1.0        0          0         
7847387_0        13.907     0          1.0        0          0         
7847387_1        13.905     0          1.0        0          0         
7847387_2        13.904     0          1.0        0          0         
7847387_3        13.902     0          1.0        0          0         
7847387_4        13.901     0          1.0        0          0         
7847387_5        13.899     0          1.0        0          0         
7847387_6        13.898     0          1.0        0          0         
7847387_7        13.896     0          1.0        0          0         
7847387_8        13.895     0          1.0        0          0         
7847387_9        13.893     0          1.0        0          0         
7847387_10       13.892     0          1.0        0          0         
7847387_11       13.890     0          1.0        0          0         
7847387_12       13.889     0          1.0        0          0         
7847387_13       13.887     0          1.0        0          0         
7847387_14       13.886     0          1.0        0          0         
7847387_15       13.885     0          1.0        0          0         
7847387_16       13.883     0          1.0        0          0         
7847387_17       13.882     0          1.0        0          0         
7847387_18       13.880     0          1.0        0          0         
7847387_19       13.879     0          1.0        0          0         
7847387_20       13.877     0          1.0        0          0         
7847387_21       13.876     0          1.0        0          0         
7847387_22       13.874     0          1.0        0          0         
7847387_23       13.873     0          1.0        0          0         
7847387_24       13.871     0          1.0        0          0         
7847387_25       13.870     0          1.0        0          0         
7847387_26       13.868     0          1.0        0          0         
7847387_27       13.867     0          1.0        0          0         
7847377_0        13.948     0          1.0        0          0         
7847377_1        13.946     0          1.0        0          0         
7847377_2        13.945     0          1.0        0          0         
7847377_3        13.943     0          1.0        0          0         
7847377_4        13.942     0          1.0        0          0         
7847377_5        13.940     0          1.0        0          0         
7847377_6        13.939     0          1.0        0          0         
7847377_7        13.938     0          1.0        0          0         
7847377_8        13.936     0          1.0        0          0         
7847377_9        13.935     0          1.0        0          0         
7847377_10       13.933     0          1.0        0          0         
7847377_11       13.932     0          1.0        0          0         
7847377_12       13.930     0          1.0        0          0         
7847377_13       13.929     0          1.0        0          0         
7847377_14       13.927     0          1.0        0          0         
7847377_15       13.926     0          1.0        0          0         
7847377_16       13.924     0          1.0        0          0         
7847377_17       13.923     0          1.0        0          0         
7847377_18       13.921     0          1.0        0          0         
7847377_19       13.920     0          1.0        0          0         
7847377_20       13.918     0          1.0        0          0         
7847377_21       13.917     0          1.0        0          0         
7847377_22       13.915     0          1.0        0          0         
7847377_23       13.914     0          1.0        0          0         
7847377_24       13.912     0          1.0        0          0         
7847377_25       13.911     0          1.0        0          0         
7847377_26       13.910     0          1.0        0          0         
7847373_0        13.971     0          1.0        0          0         
7847373_1        13.969     0          1.0        0          0         
7847373_2        13.968     0          1.0        0          0         
7847373_3        13.966     0          1.0        0          0         
7847373_4        13.965     0          1.0        0          0         
7847373_5        13.963     0          1.0        0          0         
7847373_6        13.962     0          1.0        0          0         
7847373_7        13.960     0          1.0        0          0         
7847373_8        13.959     0          1.0        0          0         
7847373_9        13.957     0          1.0        0          0         
7847373_10       13.956     0          1.0        0          0         
7847373_11       13.954     0          1.0        0          0         
7847373_12       13.953     0          1.0        0          0         
7847373_13       13.951     0          1.0        0          0         
7847373_14       13.950     0          1.0        0          0         
7847373_15       13.948     0          1.0        0          0         
7847373_16       13.947     0          1.0        0          0         
7847373_17       13.945     0          1.0        0          0         
7847373_18       13.944     0          1.0        0          0         
7847373_19       13.942     0          1.0        0          0         
7847373_20       13.941     0          1.0        0          0         
7847373_21       13.939     0          1.0        0          0         
7847373_22       13.938     0          1.0        0          0         
7847373_23       13.936     0          1.0        0          0         
7847373_24       13.935     0          1.0        0          0         
7847373_25       13.933     0          1.0        0          0         
7847373_26       13.932     0          1.0        0          0         
7847373_27       13.930     0          1.0        0          0         
7847373_28       13.929     0          1.0        0          0         
7847373_29       13.927     0          1.0        0          0         
7847373_30       13.926     0          1.0        0          0         
7847373_31       13.924     0          1.0        0          0         
7847373_32       13.923     0          1.0        0          0         
7847373_33       13.921     0          1.0        0          0         
7847373_34       13.920     0          1.0        0          0         
7847373_35       13.918     0          1.0        0          0         
7847373_36       13.917     0          1.0        0          0         
7847373_37       13.916     0          1.0        0          0         
7847373_38       13.914     0          1.0        0          0         
7847373_39       13.913     0          1.0        0          0         
7847373_40       13.911     0          1.0        0          0         
7847373_41       13.910     0          1.0        0          0         
7846483_0        14.015     0          1.0        0          0         
7846483_1        14.013     0          1.0        0          0         
7846483_2        14.012     0          1.0        0          0         
7846483_3        14.010     0          1.0        0          0         
7846483_4        14.009     0          1.0        0          0         
7846483_5        14.008     0          1.0        0          0         
7846483_6        14.006     0          1.0        0          0         
7846483_7        14.005     0          1.0        0          0         
7846483_8        14.003     0          1.0        0          0         
7846483_9        14.002     0          1.0        0          0         
7846483_10       14.000     0          1.0        0          0         
7846483_11       13.999     0          1.0        0          0         
7846483_12       13.997     0          1.0        0          0         
7846483_13       13.996     0          1.0        0          0         
7846483_14       13.994     0          1.0        0          0         
7846483_15       13.993     0          1.0        0          0         
7846483_16       13.991     0          1.0        0          0         
7846483_17       13.990     0          1.0        0          0         
7846483_18       13.988     0          1.0        0          0         