[TITLE]
;;Project Title/Notes

[OPTIONS]
;;Option             Value
FLOW_UNITS           CFS
INFILTRATION         HORTON
FLOW_ROUTING         KINWAVE
LINK_OFFSETS         DEPTH
MIN_SLOPE            0
ALLOW_PONDING        NO
SKIP_STEADY_STATE    NO

START_DATE           09/10/2021
START_TIME           00:00:00
REPORT_START_DATE    09/10/2021
REPORT_START_TIME    00:00:00
END_DATE             09/10/2021
END_TIME             06:00:00
SWEEP_START          1/1
SWEEP_END            12/31
DRY_DAYS             0
REPORT_STEP          00:15:00
WET_STEP             00:05:00
DRY_STEP             01:00:00
ROUTING_STEP         0:00:30 
RULE_STEP            00:00:00

INERTIAL_DAMPING     PARTIAL
NORMAL_FLOW_LIMITED  BOTH
FORCE_MAIN_EQUATION  H-W
VARIABLE_STEP        0.75
LENGTHENING_STEP     0
MIN_SURFAREA         0
MAX_TRIALS           0
HEAD_TOLERANCE       0
SYS_FLOW_TOL         5
LAT_FLOW_TOL         5
MINIMUM_STEP         0.5
THREADS              1

[EVAPORATION]
;;Data Source    Parameters
;;-------------- ----------------
CONSTANT         0.0
DRY_ONLY         NO

[JUNCTIONS]
;;Name           Elevation  MaxDepth   InitDepth  SurDepth   Aponded   
;;-------------- ---------- ---------- ---------- ---------- ----------
U1               10         0          0          0          0         
U3               10         0          0          0          0         
U6               0          0          0          0          0         
U5               10         0          0          0          0         
U2               0          0          0          0          0         
U4               10         0          0          0          0         

[OUTFALLS]
;;Name           Elevation  Type       Stage Data       Gated    Route To        
;;-------------- ---------- ---------- ---------------- -------- ----------------
D1               0          FIXED      0.2              NO                       
D2               0          FIXED      0.2              NO                       
D3               0          FIXED      0.4              NO                       

[CONDUITS]
;;Name           From Node        To Node          Length     Roughness  InOffset   OutOffset  InitFlow   MaxFlow   
;;-------------- ---------------- ---------------- ---------- ---------- ---------- ---------- ---------- ----------
1                U1               D1               400        0.01       0          0          0          0         
2                U2               D1               400        0.01       0          0          0          0         
3                U3               D2               400        0.01       0          0          0          0         
4                U4               D2               400        0.01       0          0          0          0         
5                U5               D3               400        0.01       0          0          0          0         
6                U6               D3               400        0.01       0          0          0          0         

[XSECTIONS]
;;Link           Shape        Geom1            Geom2      Geom3      Geom4      Barrels    Culvert   
;;-------------- ------------ ---------------- ---------- ---------- ---------- ---------- ----------
1                CIRCULAR     1                0          0          0          1                    
2                CIRCULAR     1                0          0          0          1                    
3                CIRCULAR     1                0          0          0          1                    
4                CIRCULAR     1                0          0          0          1                    
5                CIRCULAR     1                0          0          0          1                    
6                CIRCULAR     1                0          0          0          1                    

[INFLOWS]
;;Node           Constituent      Time Series      Type     Mfactor  Sfactor  Baseline Pattern
;;-------------- ---------------- ---------------- -------- -------- -------- -------- --------
U1               FLOW             T1               FLOW     1.0      1.0              
U3               FLOW             T1               FLOW     1.0      1.0              
U6               FLOW             T2               FLOW     1.0      1.0              
U5               FLOW             T2               FLOW     1.0      1.0              
U2               FLOW             T2               FLOW     1.0      1.0              
U4               FLOW             T1               FLOW     1.0      1.0              

[TIMESERIES]
;;Name           Date       Time       Value     
;;-------------- ---------- ---------- ----------
T1                          01:00      1.0       
T1                          02:00      2.0       
T1                          03:00      0.0       
;
T2                          01:00      2.0       
T2                          02:00      4.0       
T2                          03:00      1.0       

[REPORT]
;;Reporting Options
SUBCATCHMENTS ALL
NODES ALL
LINKS ALL

[TAGS]

[MAP]
DIMENSIONS 0.000 0.000 10000.000 10000.000
Units      None

[COORDINATES]
;;Node           X-Coord            Y-Coord           
;;-------------- ------------------ ------------------
U1               -1383.495          5922.330          
U3               2500.000           5857.605          
U6               8454.693           5841.424          
U5               6496.764           5922.330          
U2               347.896            5889.968          
U4               4457.929           5873.786          
D1               -412.621           3624.595          
D2               3600.324           3576.052          
D3               7645.631           3543.689          

[VERTICES]
;;Link           X-Coord            Y-Coord           
;;-------------- ------------------ ------------------

