[TITLE]
;;Project Title/Notes
Example User5

[OPTIONS]
;;Option             Value
FLOW_UNITS           CFS
INFILTRATION         HORTON
FLOW_ROUTING         DYNWAVE
LINK_OFFSETS         DEPTH
MIN_SLOPE            0
ALLOW_PONDING        NO
SKIP_STEADY_STATE    NO

START_DATE           08/11/1998
START_TIME           00:00:00
REPORT_START_DATE    08/11/1998
REPORT_START_TIME    00:00:00
END_DATE             08/11/1998
END_TIME             23:00:00
SWEEP_START          01/01
SWEEP_END            12/31
DRY_DAYS             0
REPORT_STEP          00:01:0
WET_STEP             00:01:00
DRY_STEP             00:01:00
ROUTING_STEP         0:00:01 

INERTIAL_DAMPING     NONE
NORMAL_FLOW_LIMITED  FROUDE
FORCE_MAIN_EQUATION  H-W
VARIABLE_STEP        0.75
LENGTHENING_STEP     0
MIN_SURFAREA         12.557
MAX_TRIALS           8
HEAD_TOLERANCE       0.005
SYS_FLOW_TOL         5
LAT_FLOW_TOL         5
MINIMUM_STEP         0.5
THREADS              1

[FILES]
;;Interfacing Files

[EVAPORATION]
;;Data Source    Parameters
;;-------------- ----------------
CONSTANT         0.1
DRY_ONLY         NO

[RAINGAGES]
;;Name           Format    Interval SCF      Source    
;;-------------- --------- ------ ------ ----------
GAGE1            VOLUME    0.05000  1.0      TIMESERIES RainSeries1     

[SUBCATCHMENTS]
;;Name           Rain Gage        Outlet           Area     %Imperv  Width    %Slope   CurbLen  SnowPack        
;;-------------- ---------------- ---------------- -------- -------- -------- -------- -------- ----------------
1SB14#1          GAGE1            1SB14            3.5      40.8     125.0    0.54659  0   ;;                     
;;2SB14#1          GAGE1            2SB14            15.93    24.8     350.0    0.67252  0   ;;                     
;;3SB14#1          GAGE1            3SB14            6.1      27.6     150.0    0.67742  0   ;;                     
;;4SB14#1          GAGE1            4SB14            5.43     28.9     175.0    1.28243  0   ;;                                        
;;9SB14#1          GAGE1            9SB14            6.12     34.1     150.0    0.75022  0   ;;                                            
;;10SB14#1         GAGE1            10SB14           8.47     58.2     75.0     0.56918  0   ;;                       
;;11SB14_OF#1      GAGE1            11SB14_OF        18.27    4.6      225.0    0.90667  0   ;;                      
;;11SB14_OF#2      GAGE1            11SB14_OF        16.65    42.8     225.0    1.0      0   ;;                      
;;0.10_UP#1        GAGE1            0.10_UP          113.0    26.0     1200.0   1.0      0   ;;                                          

[SUBAREAS]
;;Subcatchment   N-Imperv   N-Perv     S-Imperv   S-Perv     PctZero    RouteTo    PctRouted 
;;-------------- ---------- ---------- ---------- ---------- ---------- ---------- ----------
1SB14#1          0.018      0.035      0.1        0.2        25         OUTLET    ;;
;;2SB14#1          0.018      0.035      0.1        0.2        25         OUTLET    ;;
;;3SB14#1          0.018      0.035      0.1        0.2        25         OUTLET    ;;
;;4SB14#1          0.018      0.035      0.1        0.2        25         OUTLET    ;;  
;;10SB14#1         0.018      0.035      0.1        0.2        25         OUTLET    ;;
;;11SB14_OF#1      0.018      0.035      0.1        0.2        25         OUTLET    ;;
;;11SB14_OF#2      0.016      0.03       0.1        0.2        25         OUTLET    ;;  

[INFILTRATION]
;;Subcatchment   MaxRate    MinRate    Decay      DryTime    MaxInfil  
;;-------------- ---------- ---------- ---------- ---------- ----------
;;1SB14#1          4.8        0.1        4.14       0.02013    0    ;;     
;;2SB14#1          4.8        0.1        4.14       0.02013    0    ;;     
;;3SB14#1          4.8        0.1        4.14       0.02013    0    ;;     
;;4SB14#1          4.8        0.1        4.14       0.02013    0    ;;     
;;10SB14#1         4.8        0.1        4.14       0.02013    0    ;;     
;;11SB14_OF#1      4.8        0.1        4.14       0.02013    0    ;;     
;;11SB14_OF#2      4.0        0.05       4.14       0.02013    0    ;;      

[JUNCTIONS]
;;Name           Elevation  MaxDepth   InitDepth  SurDepth   Aponded   
;;-------------- ---------- ---------- ---------- ---------- ----------
1SB14            690.50     59.50      .00        0          0      ;;       
2SB14            683.70     16.30      .00        0          0      ;;      
3SB14            682.00     18.00      .00        0          0      ;;       
4SB14            677.00     23.00      .00        0          0      ;;       
9SB14            668.00     32.00      .00        0          0      ;;   
10SB14           652.00     48.00      .00        0          0      ;;  
11SB14_OF        645.50     54.50      4.50        0          0      ;;    
802              645.40     54.60      4.60        0          0      ;; 
O.15_UP          644.00     56.00      6.00        0          0      ;;  
0.15_RM          643.90     56.10      6.10        0          0      ;; 
0.10_UP          640.70     59.30      9.30        0          0      ;;   
0.10_RM          640.60     59.40      9.40        0          0      ;;
           

[OUTFALLS]
;;Name           Elevation  Type       Stage Data       Gated    Route To        
;;-------------- ---------- ---------- ---------------- -------- ----------------
O.O_RM           637.8      FIXED      650              NO                          ;;             

[STORAGE]
;;Name           Elev.    MaxDepth   InitDepth  Shape      Curve Name/Params            N/A      Fevap    Psi      Ksat     IMD     
;;-------------- -------- ---------- ----------- ---------- ---------------------------- -------- --------          -------- --------
;;1SB1             704.45   35.55      0.0        TABULAR    1SB1                         0        0       
;;99               682.0    8.0        0.0        TABULAR    99                           0        0       

[CONDUITS]
;;Name           From Node        To Node          Length     Roughness  InOffset   OutOffset  InitFlow   MaxFlow   
;;-------------- ---------------- ---------------- ---------- ---------- ---------- ---------- ---------- ----------
557              1SB14            2SB14            400.0      0.014      0.0        0.0        0.0        0     ;;    
558              2SB14            3SB14            950.0      0.014      0.0        0.0        0.0        0     ;;    
559              3SB14            4SB14            550.0      0.014      0.0        0.0        0.0        0     ;;      
560              4SB14            9SB14            400.0      0.014      0.0        0.0        0.0        0     ;;    
561              9SB14            10SB14           600.0      0.014      0.0        7.0        0.0        0     ;; 
740pipe          10SB14           11SB14_OF        722.0      0.019      0.0        0.0        0.0        0     ;;        
GBPIPE           11SB14_OF        802              140.0      0.02       0.0        0.0        0.0        0     ;;              
.21NAT           802              O.15_UP          185.0      0.02       0.0        0.0        0.0        0     ;;  
DEERWPIPE        O.15_UP          0.15_RM          75.0       0.02       0.0        0.0        0.0        0     ;;            
.13_NAT          0.15_RM          0.10_UP          240.0      0.02       0.0        0.0        0.0        0     ;;      
PATH_PIPE        0.10_UP          0.10_RM          50.0       0.02       0.0        0.0        0.0        0     ;;          
0.06_NAT         0.10_RM          O.O_RM           520.0      0.014      0.0        0.0        0.0        0     ;;        
          

[WEIRS]
;;Name           From Node        To Node          Type         CrestHt    Qcoeff     Gated    EndCon   EndCoeff   Surcharge  RoadWidth  RoadSurf   Coeff. Curve
;;-------------- ---------------- ---------------- ------------ ---------- ---------- -------- -------- ---------- ---------- ---------- ---------- ----------------
;;WEIR1            1127             1128             TRANSVERSE   0.0        3.32       NO       0        0          YES       
;;WEIR2            1127             1128             TRANSVERSE   4.0        2.64       NO       0        0          YES       
;;WEIR3            1127             1128             TRANSVERSE   8.0        2.63       NO       0        0          YES       

[XSECTIONS]
;;Link           Shape        Geom1            Geom2      Geom3      Geom4      Barrels    Culvert   
;;-------------- ------------ ---------------- ---------- ---------- ---------- ---------- ----------                
557              IRREGULAR    97               0          0          0          1     ;;               
558              IRREGULAR    98               0          0          0          1     ;;               
559              IRREGULAR    99               0          0          0          1     ;;               
560              IRREGULAR    100              0          0          0          1     ;;              
561              IRREGULAR    101              0          0          0          1     ;;                      
0.06_NAT         IRREGULAR    112              0          0          0          1     ;;                 
740pipe          CIRCULAR     3.0              0.0        0          0          1     ;;             
GBPIPE           RECT_CLOSED  7.8              33.0       0.0        0.0        1   ;;                         
.21NAT           IRREGULAR    166              0          0          0          1   ;;                 
DEERWPIPE        RECT_CLOSED  7.0              13.5       0.0        0.0        1   ;;                            
.13_NAT          IRREGULAR    168              0          0          0          1   ;;                 
PATH_PIPE        RECT_CLOSED  4.0              25.0       0.0        0.0        1   ;;                                
;;WEIR1            RECT_OPEN    28.4             3          0          0         
;;WEIR2            RECT_OPEN    28.4             17         0          0         
;;WEIR3            RECT_OPEN    28.4             20         0          0         

[TRANSECTS]
;;Transect Data in HEC-2 format
;
NC 0.021    0.035    0.023   
X1 1                 11       70       100      0.0      0.0      0.0      0        0       
GR 20       0        11.5     0.1      10       40       8        49       9.5      52      
GR 10       70       9.5      88       8        91       10       100      11.5     139.9   
GR 20       140     
;
NC 0.021    0.035    0.023   
X1 2                 11       70       100      0.0      0.0      0.0      0        0       
GR 20       0        11.5     0.1      10       40       8        49       9.5      52      
GR 10       70       9.5      88       8        91       10       100      11.5     139.9   
GR 20       140     
;
NC 0.021    0.035    0.023   
X1 3                 11       70       100      0.0      0.0      0.0      0        0       
GR 20       0        11.5     0.1      10       40       8        49       9.5      52      
GR 10       70       9.5      88       8        91       10       100      11.5     139.9   
GR 20       140     
;
NC 0.021    0.035    0.023   
X1 4                 11       70       100      0.0      0.0      0.0      0        0       
GR 20       0        11.5     0.1      10       40       8        49       9.5      52      
GR 10       70       9.5      88       8        91       10       100      11.5     139.9   
GR 20       140     
;
NC 0.021    0.035    0.023   
X1 5                 11       70       100      0.0      0.0      0.0      0        0       
GR 20       0        11.5     0.1      10       40       8        49       9.5      52      
GR 10       70       9.5      88       8        91       10       100      11.5     139.9   
GR 20       140     
;
NC 0.021    0.035    0.023   
X1 6                 11       70       100      0.0      0.0      0.0      0        0       
GR 20       0        11.5     0.1      10       40       8        49       9.5      52      
GR 10       70       9.5      88       8        91       10       100      11.5     139.9   
GR 20       140     
;
NC 0.021    0.035    0.023   
X1 7                 11       70       100      0.0      0.0      0.0      0        0       
GR 20       0        11.5     0.1      10       40       8        49       9.5      52      
GR 10       70       9.5      88       8        91       10       100      11.5     139.9   
GR 20       140     
;
NC 0.04     0.04     0.04    
X1 8                 5        5        25       0.0      0.0      0.0      0        0       
GR 15       0        10       5        0        15       10       25       15       30      
;
NC 0.04     0.04     0.04    
X1 9                 5        5        25       0.0      0.0      0.0      0        0       
GR 10       0        4        5        0        15       4        25       10       30      
;
NC 0.04     0.04     0.04    
X1 10                5        5        25       0.0      0.0      0.0      0        0       
GR 15       0        10       5        0        15       10       25       15       30      
;
NC 0.025    0.025    0.019   
X1 11                11       70       100      0.0      0.0      0.0      0        0       
GR 20       0        11.5     0.1      10       40       8        49       9.5      52      
GR 10       70       9.5      88       8        91       10       100      11.5     139.9   
GR 20       140     
;
NC 0.025    0.025    0.019   
X1 12                11       38       42       0.0      0.0      0.0      0        0       
GR 10       0        6        0.1      4        30       3        38       1        39      
GR 0        40       1        41       3        42       4        50       6        59.9    
GR 10       60      
;
NC 0.021    0.035    0.023   
X1 13                11       70       100      0.0      0.0      0.0      0        0       
GR 20       0        11.5     0.1      10       40       8        49       9.5      52      
GR 10       70       9.5      88       8        91       10       100      11.5     139.9   
GR 20       140     
;
NC 0.021    0.035    0.023   
X1 14                11       70       100      0.0      0.0      0.0      0        0       
GR 20       0        11.5     0.1      10       40       8        49       9.5      52      
GR 10       70       9.5      88       8        91       10       100      11.5     139.9   
GR 20       140     
;
NC 0.021    0.035    0.023   
X1 15                11       70       100      0.0      0.0      0.0      0        0       
GR 20       0        11.5     0.1      10       40       8        49       9.5      52      
GR 10       70       9.5      88       8        91       10       100      11.5     139.9   
GR 20       140     
;
NC 0.021    0.035    0.023   
X1 16                11       70       100      0.0      0.0      0.0      0        0       
GR 20       0        11.5     0.1      10       40       8        49       9.5      52      
GR 10       70       9.5      88       8        91       10       100      11.5     139.9   
GR 20       140     
;
NC 0.021    0.035    0.023   
X1 17                11       70       100      0.0      0.0      0.0      0        0       
GR 20       0        11.5     0.1      10       40       8        49       9.5      52      
GR 10       70       9.5      88       8        91       10       100      11.5     139.9   
GR 20       140     
;
NC 0.021    0.035    0.023   
X1 18                11       70       100      0.0      0.0      0.0      0        0       
GR 20       0        11.5     0.1      10       40       8        49       9.5      52      
GR 10       70       9.5      88       8        91       10       100      11.5     139.9   
GR 20       140     
;
NC 0.021    0.035    0.023   
X1 19                11       70       100      0.0      0.0      0.0      0        0       
GR 20       0        11.5     0.1      10       40       8        49       9.5      52      
GR 10       70       9.5      88       8        91       10       100      11.5     139.9   
GR 20       140     
;
NC 0.021    0.035    0.023   
X1 20                11       70       100      0.0      0.0      0.0      0        0       
GR 20       0        11.5     0.1      10       40       8        49       9.5      52      
GR 10       70       9.5      88       8        91       10       100      11.5     139.9   
GR 20       140     
;
NC 0.021    0.035    0.023   
X1 21                11       70       100      0.0      0.0      0.0      0        0       
GR 20       0        11.5     0.1      10       40       8        49       9.5      52      
GR 10       70       9.5      88       8        91       10       100      11.5     139.9   
GR 20       140     
;
NC 0.021    0.035    0.023   
X1 22                11       70       100      0.0      0.0      0.0      0        0       
GR 20       0        11.5     0.1      10       40       8        49       9.5      52      
GR 10       70       9.5      88       8        91       10       100      11.5     139.9   
GR 20       140     
;
NC 0.021    0.035    0.023   
X1 23                11       70       100      0.0      0.0      0.0      0        0       
GR 20       0        11.5     0.1      10       40       8        49       9.5      52      
GR 10       70       9.5      88       8        91       10       100      11.5     139.9   
GR 20       140     
;
NC 0.021    0.035    0.023   
X1 24                11       70       100      0.0      0.0      0.0      0        0       
GR 20       0        11.5     0.1      10       40       8        49       9.5      52      
GR 10       70       9.5      88       8        91       10       100      11.5     139.9   
GR 20       140     
;
NC 0.021    0.035    0.023   
X1 25                11       70       100      0.0      0.0      0.0      0        0       
GR 20       0        11.5     0.1      10       40       8        49       9.5      52      
GR 10       70       9.5      88       8        91       10       100      11.5     139.9   
GR 20       140     
;
NC 0.021    0.035    0.023   
X1 26                11       70       100      0.0      0.0      0.0      0        0       
GR 20       0        11.5     0.1      10       40       8        49       9.5      52      
GR 10       70       9.5      88       8        91       10       100      11.5     139.9   
GR 20       140     
;
NC 0.021    0.035    0.023   
X1 27                11       70       100      0.0      0.0      0.0      0        0       
GR 20       0        11.5     0.1      10       40       8        49       9.5      52      
GR 10       70       9.5      88       8        91       10       100      11.5     139.9   
GR 20       140     
;
NC 0.021    0.035    0.023   
X1 28                11       70       100      0.0      0.0      0.0      0        0       
GR 20       0        11.5     0.1      10       40       8        49       9.5      52      
GR 10       70       9.5      88       8        91       10       100      11.5     139.9   
GR 20       140     
;
NC 0.021    0.035    0.023   
X1 29                11       70       100      0.0      0.0      0.0      0        0       
GR 20       0        11.5     0.1      10       40       8        49       9.5      52      
GR 10       70       9.5      88       8        91       10       100      11.5     139.9   
GR 20       140     
;
NC 0.021    0.035    0.023   
X1 30                11       70       100      0.0      0.0      0.0      0        0       
GR 20       0        11.5     0.1      10       40       8        49       9.5      52      
GR 10       70       9.5      88       8        91       10       100      11.5     139.9   
GR 20       140     
;
NC 0.021    0.035    0.023   
X1 31                11       70       100      0.0      0.0      0.0      0        0       
GR 20       0        11.5     0.1      10       40       8        49       9.5      52      
GR 10       70       9.5      88       8        91       10       100      11.5     139.9   
GR 20       140     
;
NC 0.021    0.035    0.023   
X1 32                11       70       100      0.0      0.0      0.0      0        0       
GR 20       0        11.5     0.1      10       40       8        49       9.5      52      
GR 10       70       9.5      88       8        91       10       100      11.5     139.9   
GR 20       140     
;
NC 0.021    0.035    0.023   
X1 33                11       70       100      0.0      0.0      0.0      0        0       
GR 20       0        11.5     0.1      10       40       8        49       9.5      52      
GR 10       70       9.5      88       8        91       10       100      11.5     139.9   
GR 20       140     
;
NC 0.021    0.035    0.023   
X1 34                11       70       100      0.0      0.0      0.0      0        0       
GR 20       0        11.5     0.1      10       40       8        49       9.5      52      
GR 10       70       9.5      88       8        91       10       100      11.5     139.9   
GR 20       140     
;
NC 0.021    0.035    0.023   
X1 35                11       70       100      0.0      0.0      0.0      0        0       
GR 20       0        11.5     0.1      10       40       8        49       9.5      52      
GR 10       70       9.5      88       8        91       10       100      11.5     139.9   
GR 20       140     
;
NC 0.08     0.08     0.035   
X1 36                10       -29.2    17.5     0.0      0.0      0.0      0        0       
GR 680      -95.1    668      -95      665.89   -29.2    657.95   -3.2     657.64   0       
GR 658.31   5.1      663.73   17.5     668.05   44.9     670      90       680      90.1    
;
NC 0.08     0.08     0.035   
X1 37                9        -37.2    36.2     0.0      0.0      0.0      0        0       
GR 680      -140.1   665.8    -140     664.4    -65.5    663.05   -37.2    655.53   -5.4    
GR 654.91   0        655.54   4.5      665.89   36.2     680      36.3    
;
NC 0.08     0.08     0.035   
X1 38                10       -39.2    14.2     0.0      0.0      0.0      0        0       
GR 680      -58.1    662.3    -58      662.42   -48.3    661.97   -39.2    653.46   -4.2    
GR 652.94   0        653.44   5        656.96   14.2     662.1    40       680      40.1    
;
NC 0.085    0.085    0.035   
X1 39                11       -22      34       0.0      0.0      0.0      0        0       
GR 680      -175.1   670      -175     670      -95      668.87   -64.1    667.78   -22     
GR 660.17   0        660.36   9.2      666.78   34       670      66       672      105     
GR 680      105.1   
;
NC 0.021    0.035    0.023   
X1 40                11       70       100      0.0      0.0      0.0      0        0       
GR 20       0        11.5     0.1      10       40       8        49       9.5      52      
GR 10       70       9.5      88       8        91       10       100      11.5     139.9   
GR 20       140     
;
NC 0.021    0.035    0.023   
X1 41                11       70       100      0.0      0.0      0.0      0        0       
GR 20       0        11.5     0.1      10       40       8        49       9.5      52      
GR 10       70       9.5      88       8        91       10       100      11.5     139.9   
GR 20       140     
;
NC 0.021    0.035    0.023   
X1 42                11       70       100      0.0      0.0      0.0      0        0       
GR 20       0        11.5     0.1      10       40       8        49       9.5      52      
GR 10       70       9.5      88       8        91       10       100      11.5     139.9   
GR 20       140     
;
NC 0.021    0.035    0.023   
X1 43                11       70       100      0.0      0.0      0.0      0        0       
GR 20       0        11.5     0.1      10       40       8        49       9.5      52      
GR 10       70       9.5      88       8        91       10       100      11.5     139.9   
GR 20       140     
;
NC 0.021    0.035    0.023   
X1 44                11       70       100      0.0      0.0      0.0      0        0       
GR 20       0        11.5     0.1      10       40       8        49       9.5      52      
GR 10       70       9.5      88       8        91       10       100      11.5     139.9   
GR 20       140     
;
NC 0.021    0.035    0.023   
X1 45                11       70       100      0.0      0.0      0.0      0        0       
GR 20       0        11.5     0.1      10       40       8        49       9.5      52      
GR 10       70       9.5      88       8        91       10       100      11.5     139.9   
GR 20       140     
;
NC 0.021    0.035    0.023   
X1 46                11       70       100      0.0      0.0      0.0      0        0       
GR 20       0        11.5     0.1      10       40       8        49       9.5      52      
GR 10       70       9.5      88       8        91       10       100      11.5     139.9   
GR 20       140     
;
NC 0.021    0.035    0.023   
X1 47                11       70       100      0.0      0.0      0.0      0        0       
GR 20       0        11.5     0.1      10       40       8        49       9.5      52      
GR 10       70       9.5      88       8        91       10       100      11.5     139.9   
GR 20       140     
;
NC 0.021    0.035    0.023   
X1 48                11       70       100      0.0      0.0      0.0      0        0       
GR 20       0        11.5     0.1      10       40       8        49       9.5      52      
GR 10       70       9.5      88       8        91       10       100      11.5     139.9   
GR 20       140     
;
NC 0.021    0.035    0.023   
X1 49                11       70       100      0.0      0.0      0.0      0        0       
GR 20       0        11.5     0.1      10       40       8        49       9.5      52      
GR 10       70       9.5      88       8        91       10       100      11.5     139.9   
GR 20       140     
;
NC 0.08     0.08     0.04    
X1 50                10       -9       9        0.0      0.0      0.0      0        0       
GR 690      -66      681      -65      680      -25      678      -15      676      -9      
GR 675      0        676      9        678      75       680      95       690      96      
;
NC 0.021    0.035    0.023   
X1 51                11       70       100      0.0      0.0      0.0      0        0       
GR 20       0        11.5     0.1      10       40       8        49       9.5      52      
GR 10       70       9.5      88       8        91       10       100      11.5     139.9   
GR 20       140     
;
NC 0.021    0.035    0.023   
X1 52                11       70       100      0.0      0.0      0.0      0        0       
GR 20       0        11.5     0.1      10       40       8        49       9.5      52      
GR 10       70       9.5      88       8        91       10       100      11.5     139.9   
GR 20       140     
;
NC 0.021    0.035    0.023   
X1 53                11       70       100      0.0      0.0      0.0      0        0       
GR 20       0        11.5     0.1      10       40       8        49       9.5      52      
GR 10       70       9.5      88       8        91       10       100      11.5     139.9   
GR 20       140     
;
NC 0.021    0.035    0.023   
X1 54                11       70       100      0.0      0.0      0.0      0        0       
GR 20       0        11.5     0.1      10       40       8        49       9.5      52      
GR 10       70       9.5      88       8        91       10       100      11.5     139.9   
GR 20       140     
;
NC 0.021    0.035    0.023   
X1 55                11       70       100      0.0      0.0      0.0      0        0       
GR 20       0        11.5     0.1      10       40       8        49       9.5      52      
GR 10       70       9.5      88       8        91       10       100      11.5     139.9   
GR 20       140     
;
NC 0.021    0.035    0.023   
X1 56                11       70       100      0.0      0.0      0.0      0        0       
GR 20       0        11.5     0.1      10       40       8        49       9.5      52      
GR 10       70       9.5      88       8        91       10       100      11.5     139.9   
GR 20       140     
;
NC 0.021    0.035    0.023   
X1 57                11       70       100      0.0      0.0      0.0      0        0       
GR 20       0        11.5     0.1      10       40       8        49       9.5      52      
GR 10       70       9.5      88       8        91       10       100      11.5     139.9   
GR 20       140     
;
NC 0.021    0.035    0.023   
X1 58                11       70       100      0.0      0.0      0.0      0        0       
GR 20       0        11.5     0.1      10       40       8        49       9.5      52      
GR 10       70       9.5      88       8        91       10       100      11.5     139.9   
GR 20       140     
;
NC 0.021    0.035    0.023   
X1 59                11       70       100      0.0      0.0      0.0      0        0       
GR 20       0        11.5     0.1      10       40       8        49       9.5      52      
GR 10       70       9.5      88       8        91       10       100      11.5     139.9   
GR 20       140     
;
NC 0.021    0.035    0.023   
X1 60                11       70       100      0.0      0.0      0.0      0        0       
GR 20       0        11.5     0.1      10       40       8        49       9.5      52      
GR 10       70       9.5      88       8        91       10       100      11.5     139.9   
GR 20       140     
;
NC 0.021    0.035    0.023   
X1 61                11       70       100      0.0      0.0      0.0      0        0       
GR 20       0        11.5     0.1      10       40       8        49       9.5      52      