[TITLE]
;;Project Title/Notes
As explained in Normann, 1985 (also known as HDS-5), the discharge through a culvert is controlled by either inlet or outlet conditions.
Inlet control means that flow through the culvert is limited by culvert entrance characteristics.
Outlet control means that flow through the culvert is limited by friction between the flowing water and the culvert barrel.
The term "outlet control" is a bit of a misnomer because friction along the entire length of the culvert is as important as the actual outlet condition (the tailwater depth).
Inlet control most often occurs for short, smooth, or greatly downward sloping culverts. Outlet control governs for long, rough, or slightly sloping culverts.
The type of control also depends on the flowrate.
For a given culvert installation, inlet control may govern for a certain range of flows while outlet control may govern for other flowrates.
If the flowrate is large enough, water could go over the road (or dam).
In this case, the calculation automatically computes the amount of water going over the road and through each culvert, as well as the headwater depth.

[OPTIONS]
;;Option             Value
FLOW_UNITS           CFS
INFILTRATION         HORTON
FLOW_ROUTING         DYNWAVE
LINK_OFFSETS         DEPTH
MIN_SLOPE            0
ALLOW_PONDING        NO
SKIP_STEADY_STATE    NO

START_DATE           01/01/2010
START_TIME           00:00:00
REPORT_START_DATE    01/01/2010
REPORT_START_TIME    00:00:00
END_DATE             01/01/2010
END_TIME             05:00:00
SWEEP_START          01/01
SWEEP_END            12/31
DRY_DAYS             0
REPORT_STEP          00:01:00
WET_STEP             00:15:00
DRY_STEP             01:00:00
ROUTING_STEP         0:00:30 

INERTIAL_DAMPING     NONE
NORMAL_FLOW_LIMITED  BOTH
FORCE_MAIN_EQUATION  H-W
VARIABLE_STEP        0.75
LENGTHENING_STEP     0
MIN_SURFAREA         12.557
MAX_TRIALS           8
HEAD_TOLERANCE       0.005
SYS_FLOW_TOL         5
LAT_FLOW_TOL         5
MINIMUM_STEP         0.5
THREADS              1

[EVAPORATION]
;;Data Source    Parameters
;;-------------- ----------------
CONSTANT         0.0
DRY_ONLY         NO

[JUNCTIONS]
;;Name           Elevation  MaxDepth   InitDepth  SurDepth   Aponded   
;;-------------- ---------- ---------- ---------- ---------- ----------
in1              10.1       10         0          0          0         
in2              10.1       5          0          0          0         
in3              10.1       5          0          0          0         
in4              10.1       5          0          0          0         
in5              10.1       5          0          0          0         
in6              10.1       5          0          0          0         
in7              10.1       5          0          0          0         
in8              10.1       5          0          0          0         
in9              10.1       5          0          0          0         
in10             10.1       5          0          0          0         
in11             10.1       5          0          0          0         
in12             10.1       5          0          0          0         
in13             10.1       5          0          0          0         
in14             10.1       5          0          0          0         
in15             10.1       5          0          0          0         
in16             10.1       5          0          0          0         
in17             10.1       5          0          0          0         
in18             10.1       5          0          0          0         
in19             10.1       5          0          0          0         
in20             10.1       5          0          0          0         
in21             10.1       5          0          0          0         
in22             10.1       5          0          0          0         
in23             10.1       5          0          0          0         
in24             10.1       5          0          0          0         
in25             10.1       5          0          0          0         
in26             10.1       5          0          0          0         
in27             10.1       5          0          0          0         
in28             10.1       5          0          0          0         
in29             10.1       5          0          0          0         
in30             10.1       5          0          0          0         
in31             10.1       5          0          0          0         
in32             10.1       5          0          0          0         
in33             10.1       5          0          0          0         
in34             10.1       5          0          0          0         
in35             10.1       5          0          0          0         
in36             10.1       5          0          0          0         
in37             10.1       5          0          0          0         
in38             10.1       5          0          0          0         
in39             10.1       5          0          0          0         
in40             10.1       5          0          0          0         
in41             10.1       5          0          0          0         
in42             10.1       5          0          0          0         
in43             10.1       5          0          0          0         
in44             10.1       5          0          0          0         
in45             10.1       5          0          0          0         
in46             10.1       5          0          0          0         
in47             10.1       5          0          0          0         
in48             10.1       5          0          0          0         
in49             10.1       5          0          0          0         
in50             10.1       5          0          0          0         
in51             10.1       5          0          0          0         
in52             10.1       5          0          0          0         
in53             10.1       5          0          0          0         
in54             10.1       5          0          0          0         
in55             10.1       5          0          0          0         
in56             10.1       5          0          0          0         
in57             10.1       5          0          0          0         
up1              10         10         0          0          0         
up2              10         10         0          0          0         
up3              10         10         0          0          0         
up4              10         10         0          0          0         
up5              10         10         0          0          0         
up6              10         10         0          0          0         
up7              10         10         0          0          0         
up8              10         10         0          0          0         
up9              10         10         0          0          0         
up10             10         10         0          0          0         
up11             10         10         0          0          0         
up12             10         10         0          0          0         
up13             10         10         0          0          0         
up14             10         10         0          0          0         
up15             10         10         0          0          0         
up16             10         10         0          0          0         
up17             10         10         0          0          0         
up18             10         10         0          0          0         
up19             10         10         0          0          0         
up20             10         10         0          0          0         
up21             10         10         0          0          0         
up22             10         10         0          0          0         
up23             10         10         0          0          0         
up24             10         10         0          0          0         
up25             10         10         0          0          0         
up26             10         10         0          0          0         
up27             10         10         0          0          0         
up28             10         10         0          0          0         
up29             10         10         0          0          0         
up30             10         10         0          0          0         
up31             10         10         0          0          0         
up32             10         10         0          0          0         
up33             10         10         0          0          0         
up34             10         10         0          0          0         
up35             10         10         0          0          0         
up36             10         10         0          0          0         
up37             10         10         0          0          0         
up38             10         10         0          0          0         
up39             10         10         0          0          0         
up40             10         10         0          0          0         
up41             10         10         0          0          0         
up42             10         10         0          0          0         
up43             10         10         0          0          0         
up44             10         10         0          0          0         
up45             10         10         0          0          0         
up46             10         10         0          0          0         
up47             10         10         0          0          0         
up48             10         10         0          0          0         
up49             10         10         0          0          0         
up50             10         10         0          0          0         
up51             10         10         0          0          0         
up52             10         10         0          0          0         
up53             10         10         0          0          0         
up54             10         10         0          0          0         
up55             10         10         0          0          0         
up56             10         10         0          0          0         
up57             10         10         0          0          0         
dn1              9.5        10         0          0          0         
dn2              9.5        10         0          0          0         
dn3              9.5        10         0          0          0         
dn4              9.5        10         0          0          0         
dn5              9.5        10         0          0          0         
dn6              9.5        10         0          0          0         
dn7              9.5        10         0          0          0         
dn8              9.5        10         0          0          0         
dn9              9.5        10         0          0          0         
dn10             9.5        10         0          0          0         
dn11             9.5        10         0          0          0         
dn12             9.5        10         0          0          0         
dn13             9.5        10         0          0          0         
dn14             9.5        10         0          0          0         
dn15             9.5        10         0          0          0         
dn16             9.5        10         0          0          0         
dn17             9.5        10         0          0          0         
dn18             9.5        10         0          0          0         
dn19             9.5        10         0          0          0         
dn20             9.5        10         0          0          0         
dn21             9.5        10         0          0          0         
dn22             9.5        10         0          0          0         
dn23             9.5        10         0          0          0         
dn24             9.5        10         0          0          0         
dn25             9.5        10         0          0          0         
dn26             9.5        10         0          0          0         
dn27             9.5        10         0          0          0         
dn28             9.5        10         0          0          0         
dn29             9.5        10         0          0          0         
dn30             9.5        10         0          0          0         
dn31             9.5        10         0          0          0         
dn32             9.5        10         0          0          0         
dn33             9.5        10         0          0          0         
dn34             9.5        10         0          0          0         
dn35             9.5        10         0          0          0         
dn36             9.5        10         0          0          0         
dn37             9.5        10         0          0          0         
dn38             9.5        10         0          0          0         
dn39             9.5        10         0          0          0         
dn40             9.5        10         0          0          0         
dn41             9.5        10         0          0          0         
dn42             9.5        10         0          0          0         
dn43             9.5        10         0          0          0         
dn44             9.5        10         0          0          0         
dn45             9.5        10         0          0          0         
dn46             9.5        10         0          0          0         
dn47             9.5        10         0          0          0         
dn48             9.5        10         0          0          0         
dn49             9.5        10         0          0          0         
dn50             9.5        10         0          0          0         
dn51             9.5        10         0          0          0         
dn52             9.5        10         0          0          0         
dn53             9.5        10         0          0          0         
dn54             9.5        10         0          0          0         
dn55             9.5        10         0          0          0         
dn56             9.5        10         0          0          0         
dn57             9.5        10         0          0          0         

[OUTFALLS]
;;Name           Elevation  Type       Stage Data       Gated    Route To        
;;-------------- ---------- ---------- ---------------- -------- ----------------
out1             9          FREE                        NO                       
out2             9          FREE                        NO                       
out3             9          FREE                        NO                       
out4             9          FREE                        NO                       
out5             9          FREE                        NO                       
out6             9          FREE                        NO                       
out7             9          FREE                        NO                       
out8             9          FREE                        NO                       
out9             9          FREE                        NO                       
out10            9          FREE                        NO                       
out11            9          FREE                        NO                       
out12            9          FREE                        NO                       
out13            9          FREE                        NO                       
out14            9          FREE                        NO                       
out15            9          FREE                        NO                       
out16            9          FREE                        NO                       
out17            9          FREE                        NO                       
out18            9          FREE                        NO                       
out19            9          FREE                        NO                       
out20            9          FREE                        NO                       
out21            9          FREE                        NO                       
out22            9          FREE                        NO                       
out23            9          FREE                        NO                       
out24            9          FREE                        NO                       
out25            9          FREE                        NO                       
out26            9          FREE                        NO                       
out27            9          FREE                        NO                       
out28            9          FREE                        NO                       
out29            9          FREE                        NO                       
out30            9          FREE                        NO                       
out31            9          FREE                        NO                       
out32            9          FREE                        NO                       
out33            9          FREE                        NO                       
out34            9          FREE                        NO                       
out35            9          FREE                        NO                       
out36            9          FREE                        NO                       
out37            9          FREE                        NO                       
out38            9          FREE                        NO                       
out39            9          FREE                        NO                       
out40            9          FREE                        NO                       
out41            9          FREE                        NO                       
out42            9          FREE                        NO                       
out43            9          FREE                        NO                       
out44            9          FREE                        NO                       
out45            9          FREE                        NO                       
out46            9          FREE                        NO                       
out47            9          FREE                        NO                       
out48            9          FREE                        NO                       
out49            9          FREE                        NO                       
out50            9          FREE                        NO                       
out51            9          FREE                        NO                       
out52            9          FREE                        NO                       
out53            9          FREE                        NO                       
out54            9          FREE                        NO                       
out55            9          FREE                        NO                       
out56            9          FREE                        NO                       
out57            9          FREE                        NO                       

[CONDUITS]
;;Name           From Node        To Node          Length     Roughness  InOffset   OutOffset  InitFlow   MaxFlow   
;;-------------- ---------------- ---------------- ---------- ---------- ---------- ---------- ---------- ----------
upstream1        in1              up1              500        0.01       0          0          0          0         
upstream2        in2              up2              500        0.01       0          0          0          0         
upstream3        in3              up3              500        0.01       0          0          0          0         
upstream4        in4              up4              500        0.01       0          0          0          0         
upstream5        in5              up5              500        0.01       0          0          0          0         
upstream6        in6              up6              500        0.01       0          0          0          0         
upstream7        in7              up7              500        0.01       0          0          0          0         
upstream8        in8              up8              500        0.01       0          0          0          0         
upstream9        in9              up9              500        0.01       0          0          0          0         
upstream10       in10             up10             500        0.01       0          0          0          0         
upstream11       in11             up11             500        0.01       0          0          0          0         
upstream12       in12             up12             500        0.01       0          0          0          0         
upstream13       in13             up13             500        0.01       0          0          0          0         
upstream14       in14             up14             500        0.01       0          0          0          0         
upstream15       in15             up15             500        0.01       0          0          0          0         
upstream16       in16             up16             500        0.01       0          0          0          0         
upstream17       in17             up17             500        0.01       0          0          0          0         
upstream18       in18             up18             500        0.01       0          0          0          0         
upstream19       in19             up19             500        0.01       0          0          0          0         
upstream20       in20             up20             500        0.01       0          0          0          0         
upstream21       in21             up21             500        0.01       0          0          0          0         
upstream22       in22             up22             500        0.01       0          0          0          0         
upstream23       in23             up23             500        0.01       0          0          0          0         
upstream24       in24             up24             500        0.01       0          0          0          0         
upstream25       in25             up25             500        0.01       0          0          0          0         
upstream26       in26             up26             500        0.01       0          0          0          0         
upstream27       in27             up27             500        0.01       0          0          0          0         
upstream28       in28             up28             500        0.01       0          0          0          0         
upstream29       in29             up29             500        0.01       0          0          0          0         
upstream30       in30             up30             500        0.01       0          0          0          0         
upstream31       in31             up31             500        0.01       0          0          0          0         
upstream32       in32             up32             500        0.01       0          0          0          0         
upstream33       in33             up33             500        0.01       0          0          0          0         
upstream34       in34             up34             500        0.01       0          0          0          0         
upstream35       in35             up35             500        0.01       0          0          0          0         
upstream36       in36             up36             500        0.01       0          0          0          0         
upstream37       in37             up37             500        0.01       0          0          0          0         
upstream38       in38             up38             500        0.01       0          0          0          0         
upstream39       in39             up39             500        0.01       0          0          0          0         
upstream40       in40             up40             500        0.01       0          0          0          0         
upstream41       in41             up41             500        0.01       0          0          0          0         
upstream42       in42             up42             500        0.01       0          0          0          0         
upstream43       in43             up43             500        0.01       0          0          0          0         
upstream44       in44             up44             500        0.01       0          0          0          0         
upstream45       in45             up45             500        0.01       0          0          0          0         
upstream46       in46             up46             500        0.01       0          0          0          0         
upstream47       in47             up47             500        0.01       0          0          0          0         
upstream48       in48             up48             500        0.01       0          0          0          0         
upstream49       in49             up49             500        0.01       0          0          0          0         
upstream50       in50             up50             500        0.01       0          0          0          0         
upstream51       in51             up51             500        0.01       0          0          0          0         
upstream52       in52             up52             500        0.01       0          0          0          0         
upstream53       in53             up53             500        0.01       0          0          0          0         
upstream54       in54             up54             500        0.01       0          0          0          0         
upstream55       in55             up55             500        0.01       0          0          0          0         
upstream56       in56             up56             500        0.01       0          0          0          0         
upstream57       in57             up57             500        0.01       0          0          0          0         
culvert1         up1              dn1              100        0.01       0          0          0          0         
culvert2         up2              dn2              100        0.01       0          0          0          0         
culvert3         up3              dn3              100        0.01       0          0          0          0         
culvert4         up4              dn4              100        0.01       0          0          0          0         
culvert5         up5              dn5              100        0.01       0          0          0          0         
culvert6         up6              dn6              100        0.01       0          0          0          0         
culvert7         up7              dn7              100        0.01       0          0          0          0         
culvert8         up8              dn8              100        0.01       0          0          0          0         
culvert9         up9              dn9              100        0.01       0          0          0          0         
culvert10        up10             dn10             100        0.01       0          0          0          0         
culvert11        up11             dn11             100        0.01       0          0          0          0         
culvert12        up12             dn12             100        0.01       0          0          0          0         
culvert13        up13             dn13             100        0.01       0          0          0          0         
culvert14        up14             dn14             100        0.01       0          0          0          0         
culvert15        up15             dn15             100        0.01       0          0          0          0         
culvert16        up16             dn16             100        0.01       0          0          0          0         
culvert17        up17             dn17             100        0.01       0          0          0          0         
culvert18        up18             dn18             100        0.01       0          0          0          0         
culvert19        up19             dn19             100        0.01       0          0          0          0         
culvert20        up20             dn20             100        0.01       0          0          0          0         
culvert21        up21             dn21             100        0.01       0          0          0          0         
culvert22        up22             dn22             100        0.01       0          0          0          0         
culvert23        up23             dn23             100        0.01       0          0          0          0         
culvert24        up24             dn24             100        0.01       0          0          0          0         
culvert25        up25             dn25             100        0.01       0          0          0          0         
culvert26        up26             dn26             100        0.01       0          0          0          0         
culvert27        up27             dn27             100        0.01       0          0          0          0         
culvert28        up28             dn28             100        0.01       0          0          0          0         
culvert29        up29             dn29             100        0.01       0          0          0          0         
culvert30        up30             dn30             100        0.01       0          0          0          0         