[TITLE]
;;Project Title/Notes

[OPTIONS]
;;Option             Value
FLOW_UNITS           CMS
INFILTRATION         HORTON
FLOW_ROUTING         DYNWAVE
LINK_OFFSETS         DEPTH
MIN_SLOPE            0
ALLOW_PONDING        NO
SKIP_STEADY_STATE    NO

START_DATE           06/06/2021
START_TIME           00:00:00
REPORT_START_DATE    06/06/2021
REPORT_START_TIME    00:00:00
END_DATE             06/06/2021
END_TIME             2:05:00
SWEEP_START          1/1
SWEEP_END            12/31
DRY_DAYS             0
REPORT_STEP          00:15:00
WET_STEP             00:05:00
DRY_STEP             01:00:00
ROUTING_STEP         0:00:30 

INERTIAL_DAMPING     PARTIAL
NORMAL_FLOW_LIMITED  BOTH
FORCE_MAIN_EQUATION  H-W
VARIABLE_STEP        0.75
LENGTHENING_STEP     0
MIN_SURFAREA         0
MAX_TRIALS           0
HEAD_TOLERANCE       0
SYS_FLOW_TOL         5
LAT_FLOW_TOL         5
MINIMUM_STEP         0.5
THREADS              1

[EVAPORATION]
;;Data Source    Parameters
;;-------------- ----------------
CONSTANT         0.0
DRY_ONLY         NO

[JUNCTIONS]
;;Name           Elevation  MaxDepth   InitDepth  SurDepth   Aponded   
;;-------------- ---------- ---------- ---------- ---------- ----------
Ju1               0.3489       0          1          0          0         
Ju2               0.3489       0          1          0          0 
Ju3               0.3489       0          1          0          0      
Ju4               0.3489       0          1          0          0      
Jm                0.1745       0          1          0          0         


[OUTFALLS]
;;Name           Elevation  Type       Stage Data       Gated    Route To        
;;-------------- ---------- ---------- ---------------- -------- ----------------
Jd1               0          FREE                        NO                  
Jd2               0           FREE                        NO                 
Jd3               0          FREE                        NO                      

[CONDUITS]
;;Name           From Node        To Node          Length     Roughness  InOffset   OutOffset  InitFlow   MaxFlow   
;;-------------- ---------------- ---------------- ---------- ---------- ---------- ---------- ---------- ----------
Cu1               Ju1               Jm               1000       0.03       0          0          0.66     0         
Cu2               Ju2               Jm               1000       0.03       0          0          0.66     0     
Cu3               Ju3               Jm               1000       0.03       0          0          0.66     0    
Cu4               Ju4               Jm               1000       0.03       0          0          0.66     0    
Cd1               Jm               Jd1               1000       0.03       0          0          0.85    0         
Cd2               Jm               Jd2               1000       0.03       0          0          0.85     0        
Cd3               Jm               Jd3               1000       0.03       0          0           0.85     0        

[XSECTIONS]
;;Link           Shape        Geom1            Geom2      Geom3      Geom4      Barrels    Culvert   
;;-------------- ------------ ---------------- ---------- ---------- ---------- ---------- ----------
Cu1               RECT_OPEN    4                3          0          0          1                    
Cu2               RECT_OPEN    4                3          0          0          1                    
Cu3               RECT_OPEN    4                3          0          0          1       
Cu4               RECT_OPEN    4                3          0          0          1    
Cd1               RECT_OPEN    4                3          0          0          1    
Cd2               RECT_OPEN    4                3          0          0          1   
Cd3               RECT_OPEN    4                3          0          0          1                 

[INFLOWS]
;;Node           Constituent      Time Series      Type     Mfactor  Sfactor  Baseline Pattern
;;-------------- ---------------- ---------------- -------- -------- -------- -------- --------
Ju1               FLOW             ""               FLOW     1.0      1.0      0.66 
Ju2               FLOW             ""               FLOW     1.0      1.0      0.66  
Ju3               FLOW             ""               FLOW     1.0      1.0      0.66 
Ju4               FLOW             ""               FLOW     1.0      1.0      0.66 

[REPORT]
;;Reporting Options
SUBCATCHMENTS ALL
NODES ALL
LINKS ALL

[TAGS]

[MAP]
DIMENSIONS 0.000 0.000 10000.000 10000.000
Units      None

[COORDINATES]
;;Node           X-Coord            Y-Coord           
;;-------------- ------------------ ------------------
J1               566.038            6740.995          
J2               4236.707           6723.842          
J3               2418.525           5008.576    
J4               2018.525           2881.647        
J5               2418.525           2881.647          

[VERTICES]
;;Link           X-Coord            Y-Coord           
;;-------------- ------------------ ------------------

