[TITLE]
;;Project Title/Notes
   Aubrey Cornish Coarse Runoff Model
   Catchments duplicated as to connectivity to CS or SRS - ratio lines proportion areas
   Aubrey Cornish Coarse Extran Model - All outfalls as pumps with single dummy pipes
   Original configuration with Ground Elev adjusted to Basement Elevation on Combined Sewers

[OPTIONS]
;;Option             Value
FLOW_UNITS           CMS
INFILTRATION         HORTON
FLOW_ROUTING         DYNWAVE
LINK_OFFSETS         DEPTH
MIN_SLOPE            0
ALLOW_PONDING        NO
SKIP_STEADY_STATE    NO

START_DATE           01/01/1999
START_TIME           01:00:00
REPORT_START_DATE    01/01/1999
REPORT_START_TIME    01:00:00
END_DATE             01/01/1999
END_TIME             05:00:00
SWEEP_START          1/1
SWEEP_END            12/31
DRY_DAYS             0
REPORT_STEP          00:00:30
WET_STEP             00:01:00
DRY_STEP             00:10:00
ROUTING_STEP         0:00:30 

INERTIAL_DAMPING     PARTIAL
NORMAL_FLOW_LIMITED  SLOPE
FORCE_MAIN_EQUATION  H-W
VARIABLE_STEP        0.75
LENGTHENING_STEP     0
MIN_SURFAREA         1.2
MAX_TRIALS           0
HEAD_TOLERANCE       0
SYS_FLOW_TOL         5
LAT_FLOW_TOL         5
MINIMUM_STEP         0.5
THREADS              1

[EVAPORATION]
;;Data Source    Parameters
;;-------------- ----------------
CONSTANT         0.0
DRY_ONLY         NO

[RAINGAGES]
;;Name           Format    Interval SCF      Source    
;;-------------- --------- ------ ------ ----------
GAGE1            INTENSITY 0.25000  1.0      TIMESERIES SERIES1         

[SUBCATCHMENTS]
;;Name           Rain Gage        Outlet           Area     %Imperv  Width    %Slope   CurbLen  SnowPack        
;;-------------- ---------------- ---------------- -------- -------- -------- -------- -------- ----------------
CMCPWIN          GAGE1            CMCPWIN-I        3.43     76.0     514.6    1.0      0                        
CMCPBAN          GAGE1            CMCPBAN-I        1.7296   83.0     259.4    1.0      0                        
CMCPELG          GAGE1            CMCPELG-I        1.383    48.0     207.4    1.0      0                        
CMCPPAC          GAGE1            CMCPPAC-I        2.276    83.0     341.4    1.0      0                        
CPAC72           GAGE1            CPAC72-I         2.362    50.0     354.4    1.0      0                        
CPAC75           GAGE1            CPAC75-I         2.34     60.0     351.0    1.0      0                        
CALEXAN          GAGE1            CALEXAN-I        0.1698   80.0     25.4     1.0      0                        
CLOG80           GAGE1            CLOG80-I         1.1816   90.0     177.2    1.0      0                        
CHEN90           GAGE1            CHEN90-I         2.808    42.0     421.2    1.0      0                        
CHIGMAU          GAGE1            CHIGMAU-I        1.4536   74.0     218.0    1.0      0                        
CHEN90-R         GAGE1            CHEN90-I         1.1632   10.0     174.4    1.0      0                        
CHIGMAU-R        GAGE1            CHIGMAU-I        0.9424   10.0     141.4    1.0      0                        
CMCPLOG          GAGE1            CMCPLOG-I        1.8308   40.0     274.6    1.0      0                        
CLOGYEO          GAGE1            CLOGYEO-I        0.9122   20.0     136.8    1.0      0                        
CLOGYEO-R        GAGE1            CLOGYEO-I        0.09556  10.0     14.4     1.0      0                        
CLOGWNK          GAGE1            CLOGWNK-I        2.384    35.0     357.6    1.0      0                        
CLOGCEC-R        GAGE1            CLOGCEC-I        5.488    10.0     823.2    1.0      0                        
CLOGQUE-R        GAGE1            CLOGQUE-I        0.8344   18.0     125.2    1.0      0                        
CLOGVIN-R        GAGE1            CLOGVIN-I        2.362    10.0     354.4    1.0      0                        
CLOGWNK-R        GAGE1            CLOGWNK-I        0.465    10.0     69.8     1.0      0                        
CLOGELE          GAGE1            CLOGELE-I        1.4518   40.0     217.8    1.0      0                        
CLOGVIN          GAGE1            CLOGVIN-I        2.136    65.0     320.4    1.0      0                        
CLOGQUE          GAGE1            CLOGQUE-I        0.3308   60.0     49.6     1.0      0                        
CLOGCEC          GAGE1            CLOGCEC-I        1.872    55.0     280.8    1.0      0                        
CCECROY          GAGE1            CCECROY-I        0.3364   55.0     50.4     1.0      0                        
SMCPWIN1         GAGE1            SMYRWIN-I        1.372    80.0     205.76   1.0      0                        
SMCPWIN2         GAGE1            SMCPMCD-I        6.86     72.0     1028.8   1.0      0                        
SMCPBAN          GAGE1            SLARWIL-I        6.9184   83.0     1037.6   1.0      0                        
SMCPELG          GAGE1            SXANELG-I        5.532    48.0     829.6    1.0      0                        
SMCPPAC          GAGE1            SXANELG-I        9.104    83.0     1365.6   1.0      0                        
SPAC72           GAGE1            SXANALE-I        9.448    50.0     1417.6   1.0      0                        
SPAC75           GAGE1            SXANALE-I        9.36     60.0     1404.0   1.0      0                        
SXANALE          GAGE1            SXANALE-I        0.6792   80.0     101.6    1.0      0                        
SLOG80           GAGE1            SMCP85-I         4.7264   90.0     708.8    1.0      0                        
SHEN90           GAGE1            SALEMAU-I        11.232   42.0     1684.8   1.0      0                        
SHIGMAU          GAGE1            SMAULOG-I        5.8144   74.0     872.0    1.0      0                        
SHEN90-R         GAGE1            SMAULOG-I        4.6528   10.0     697.6    1.0      0                        
SHIGMAU-R        GAGE1            SMAULOG-I        3.7696   10.0     565.6    1.0      0                        
SMCPLOG          GAGE1            SMCP85-I         7.3232   40.0     1098.4   1.0      0                        
SLOGYEO          GAGE1            SDUM1-I          3.6488   20.0     547.2    1.0      0                        
SLOGYEO-R        GAGE1            SALEMAU-I        0.3824   10.0     57.6     1.0      0                        
SLOGWNK          GAGE1            SDUM1-I          9.536    35.0     1430.4   1.0      0                        
SLOGCEC-R        GAGE1            SDUM2-I          21.952   10.0     3292.8   1.0      0                        
SLOGQUE-R        GAGE1            SDUM2-I          3.3376   18.0     500.8    1.0      0                        
SLOGVIN-R        GAGE1            SALEMAU-I        9.448    10.0     1417.6   1.0      0                        
SLOGWNK-R        GAGE1            SALEMAU-I        1.86     10.0     279.2    1.0      0                        
SLOGELE          GAGE1            SDUM1-I          5.8072   40.0     871.2    1.0      0                        
SLOGVIN          GAGE1            SDUM2-I          8.544    65.0     1281.6   1.0      0                        
SLOGQUE          GAGE1            SDUM2-I          1.3232   60.0     198.4    1.0      0                        
SLOGCEC          GAGE1            SDUM3-I          7.488    55.0     1123.2   1.0      0                        
SCECROY          GAGE1            SDUM3-I          1.3456   55.0     201.6    1.0      0                        
CLIPSAR          GAGE1            CLIPSAR-I        3.7856   58.0     567.84   1.0      0                        
CSARBUR          GAGE1            CSARBUR-I        2.13115  55.0     319.55   1.0      0                        
CSARARL          GAGE1            CSARARL-I        4.844    58.0     726.6    1.0      0                        
CLIPWEL          GAGE1            CLIPWEL-I        5.25     60.0     787.5    1.0      0                        
CWELSHB          GAGE1            CWELSHB-I        1.66565  55.0     249.9    1.0      0                        
CWELDOM          GAGE1            CWELDOM-I        5.0995   53.0     765.1    1.0      0                        
CLIPNOT          GAGE1            CLIPNOT-I        3.4811   73.0     522.2    1.0      0                        
CNOTDOM          GAGE1            CNOTDOM-I        9.667    55.0     1450.05  1.0      0                        
CNOTSHB          GAGE1            CNOTSHB-I        4.081    59.0     612.15   1.0      0                        
SLIPSAR          GAGE1            SSHBSAR-I        3.0758   58.0     461.37   1.0      0                        
SSARBUR          GAGE1            SALVSAR-I        3.95785  55.0     593.45   1.0      0                        
SSARARL1         GAGE1            SSIMSAR-I        2.99845  59.53    449.8    1.0      0                        
SSARARL2         GAGE1            SALVWEL-I        2.99845  59.53    449.8    1.0      0                        
SSARARL3         GAGE1            SSIMWEL-I        2.99845  55.0     449.8    1.0      0                        
SLIPWEL1         GAGE1            SALVWEL-I        6.825    60.0     1023.75  1.0      0                        
SLIPWEL2         GAGE1            SSHBWEL-I        2.925    60.0     438.75   1.0      0                        
SWELSHB          GAGE1            SSHBWEL-I        3.09335  55.0     464.1    1.0      0                        
SWELDOM          GAGE1            SWELDOM-I        9.4705   53.0     1420.9   1.0      0                        
SLIPNOT1         GAGE1            SSHBNOT-I        3.23245  56.0     484.9    1.0      0                        
SLIPNOT2         GAGE1            SALVNOT-I        3.23245  90.0     484.9    1.0      0                        
SNOTDOM1         GAGE1            SSHBNOT-I        5.98455  55.0     897.65   1.0      0                        
SNOTDOM2         GAGE1            SNOTMYR-I        5.98455  55.0     897.65   1.0      0                        
SNOTDOM3         GAGE1            SNOTWLL-I        5.98455  55.0     897.65   1.0      0                        
SNOTSHB          GAGE1            SSHB54-I         7.579    59.0     1136.85  1.0      0                        
CAUBPAL          GAGE1            CAUBPAL-I        0.9984   55.0     149.76   1.0      0                        
CAUBWOL          GAGE1            CAUBWOL-I        3.5604   55.0     534.0    1.0      0                        
CAUBWSM          GAGE1            CAUBWSM-I        1.3028   55.0     195.6    1.0      0                        
CELCGRF          GAGE1            CELCGRF-I        6.652    55.0     998.0    1.0      0                        
CELCING          GAGE1            CELCING-I        2.5204   55.0     378.0    1.0      0                        
CLIPELC          GAGE1            CLIPELC-I        1.0516   55.0     157.6    1.0      0                        
CLIPSMT          GAGE1            CLIPSMT-I        3.718    56.0     557.6    1.0      0                        
CPORBAN          GAGE1            CPORBAN-I        4.856    55.0     728.4    1.0      0                        
CPORBUR          GAGE1            CPORBUR-I        8.744    69.0     1311.6   1.0      0                        
CPORDOM          GAGE1            CPORDOM-I        4.448    65.0     667.2    1.0      0                        
CPORGRE          GAGE1            CPORGRE-I        6.78     55.0     1017.2   1.0      0                        
CPORLIP          GAGE1            CPORLIP-I        2.3648   58.0     354.8    1.0      0                        
CPORSHB          GAGE1            CPORSHB-I        4.092    59.0     614.0    1.0      0                        
CPORSPR          GAGE1            CPORSPR-I        4.0      60.0     600.0    1.0      0                        
CPORWLL          GAGE1            CPORWLL-I        6.568    80.0     985.2    1.0      0                        
CSMTING          GAGE1            CSMTING-I        3.042    55.0     456.4    1.0      0                        
CSTMSHB          GAGE1            CSTMSHB-I        5.24     55.0     786.0    1.0      0                        
SAUBPAL          GAGE1            SRUBPAL-I        0.9216   55.0     138.24   1.0      0                        
SAUBWOL          GAGE1            SSHBPAL-I        5.3406   55.0     801.0    1.0      0                        
SELCGRF1         GAGE1            SELCDOM-I        7.9824   55.0     1197.6   1.0      0                        
SELCGRF2         GAGE1            SSHBSAR-I        1.9956   55.0     299.4    1.0      0                        
SELCING          GAGE1            SSHBELC-I        3.7806   55.0     567.0    1.0      0                        
SLIPELC          GAGE1            SSHBELC-I        1.5774   55.0     236.4    1.0      0                        
SLIPSMT1         GAGE1            SSHBSTM-I        2.7888   55.0     418.2    1.0      0                        
SLIPSMT2         GAGE1            SBURELC-I        2.7888   57.0     418.2    1.0      0                        
SPORBAN1         GAGE1            SLENWSM-I        5.0988   55.0     765.0    1.0      0                        
SPORBAN2         GAGE1            SBUREIN-I        2.1852   55.0     327.6    1.0      0                        
SPORBUR1         GAGE1            SLENWSM-I        3.279    55.0     492.0    1.0      0                        
SPORBUR2         GAGE1            SBURPOR-I        3.279    83.0     492.0    1.0      0                        
SPORBUR3         GAGE1            SBURSMT-I        3.279    69.0     492.0    1.0      0                        
SPORBUR4         GAGE1            SBURELC-I        3.279    69.0     492.0    1.0      0                        
SPORDOM1         GAGE1            SSHBPAL-I        1.668    55.0     250.2    1.0      0                        
SPORDOM2         GAGE1            SSHBWSM-I        1.668    55.0     250.2    1.0      0                        
SPORDOM3         GAGE1            SPORSHB-I        1.668    70.0     250.2    1.0      0                        
SPORDOM4         GAGE1            SSHBWLV-I        1.668    80.0     250.2    1.0      0                        
SPORGRE1         GAGE1            SSHBPAL-I        2.5428   55.0     381.6    1.0      0                        
SPORGRE2         GAGE1            SPORGRE-I        2.5428   55.0     381.6    1.0      0                        
SPORGRE3         GAGE1            SSHBWLV-I        2.5428   55.0     381.6    1.0      0                        
SPORGRE4         GAGE1            SSHBSTM-I        2.5428   55.0     381.6    1.0      0                        
SPORLIP1         GAGE1            SPORSHB-I        1.7736   58.0     265.8    1.0      0                        
SPORLIP2         GAGE1            SBURPOR-I        1.7736   58.0     265.8    1.0      0                        
SPORSHB1         GAGE1            SSHBWSM-I        2.046    55.0     307.2    1.0      0                        
SPORSHB2         GAGE1            SPORSHB-I        2.046    67.0     307.2    1.0      0                        
SPORSHB3         GAGE1            SSHBWLV-I        2.046    55.0     307.2    1.0      0                        
SPORSPR1         GAGE1            SSHBWSM-I        1.9998   55.0     300.0    1.0      0                        
SPORSPR2         GAGE1            SPORSPR-I        1.9998   70.018   300.0    1.0      0                        
SPORSPR3         GAGE1            SSHBWLV-I        1.9998   55.0     300.0    1.0      0                        
SPORWLL1         GAGE1            SSHBWSM-I        3.2838   50.0     492.6    1.0      0                        
SPORWLL2         GAGE1            SPORWLL-I        3.2838   95.0     492.6    1.0      0                        
SPORWLL3         GAGE1            SSHBWLV-I        3.2838   95.0     492.6    1.0      0                        
SSMTING1         GAGE1            SSHBELC-I        3.1944   55.0     479.4    1.0      0                        
SSMTING2         GAGE1            SPORSHB-I        1.3692   55.0     205.2    1.0      0                        
SSTMSHB1         GAGE1            SSHBSTM-I        3.93     55.0     589.8    1.0      0                        
SSTMSHB2         GAGE1            SSTMDOM-I        1.965    71.0     294.6    1.0      0                        
SSTMSHB3         GAGE1            SSHBWLV-I        1.965    39.0     294.6    1.0      0                        
CPORCAN          GAGE1            CPORCAN-I        0.85992  69.0     129.0    1.0      0                        
CPORHOM          GAGE1            CPORHOM-I        1.9594   62.0     294.0    1.0      0                        
CSIMSTM          GAGE1            CSIMSTM-I        2.532    55.0     379.8    1.0      0                        
CSIMELC          GAGE1            CSIMELC-I        2.97     55.0     445.6    1.0      0                        
CSIMSAR          GAGE1            CSIMSAR-I        1.3234   59.0     198.6    1.0      0                        
CSIMWEL          GAGE1            CSIMWEL-I        1.401    66.0     210.2    1.0      0                        
SPORCAN1         GAGE1            SSIMPOR-I        0.57328  83.0     85.92    1.0      0                        
SPORCAN2         GAGE1            SSIMSTM-I        2.8664   55.0     429.6    1.0      0                        
SPORHOM1         GAGE1            SBUREIN-I        3.9192   62.0     588.0    1.0      0                        
SPORHOM2         GAGE1            SSIMSTM-I        3.9192   62.0     588.0    1.0      0                        
SSIMSTM1         GAGE1            SSTMARL-I        5.064    55.0     760.0    1.0      0                        
SSIMSTM2         GAGE1            SSIMSTM-I        5.064    55.0     760.0    1.0      0                        
SSIMELC          GAGE1            SSIMELC-I        11.88    55.0     1782.4   1.0      0                        
SSIMSAR          GAGE1            SSIMSAR-I        5.2936   59.0     794.4    1.0      0                        
SSIMWEL1         GAGE1            SWELMRY-I        2.8      66.0     840.8    1.0      0                        
SSIMWEL2         GAGE1            SWELVIC-I        2.804    66.0     840.8    1.0      0                        
CCORMID          GAGE1            CCORMID-I        6.72     40.0     1008.0   1.0      0                        
CMRYCOR          GAGE1            CMRYCOR-I        2.0625   59.0     309.5    1.0      0                        
CMRYWSM          GAGE1            CMRYWSM-I        0.9645   60.0     144.5    1.0      0                        
CWALPUR          GAGE1            CWALPUR-I        1.7355   55.0     260.5    1.0      0                        
CWSMWAL          GAGE1            CWSMWAL-I        4.67     55.0     700.5    1.0      0                        
CWSMARL          GAGE1            CWSMARL-I        5.88     55.0     882.0    1.0      0                        
CWSMCAN          GAGE1            CWSMCAN-I        3.842    55.0     576.5    1.0      0                        
CWSMETH          GAGE1            CWSMETH-I        4.3055   55.0     646.0    1.0      0                        
CCANPRE          GAGE1            CCANPRE-I        3.3425   33.0     501.5    1.0      0                        
SCORMID          GAGE1            SCANWOL-I        4.2      40.0     630.0    1.0      0                        
SMRYCOR          GAGE1            SCANWOL-I        2.0625   59.0     309.5    1.0      0                        
SMRYWSM          GAGE1            SCANWSM-I        0.9645   60.0     144.5    1.0      0                        
SWALPUR          GAGE1            SCANPRE-I        1.7355   55.0     260.5    1.0      0                        
SWSMWAL1         GAGE1            SCANWOL-I        2.335    55.0     350.5    1.0      0                        
SWSMWAL2         GAGE1            SCANWSM-I        2.335    55.0     350.5    1.0      0                        
SWSMARL1         GAGE1            SWOLHOM-I        2.94     55.0     441.0    1.0      0                        
SWSMARL2         GAGE1            SWSMARL-I        2.94     55.0     441.0    1.0      0                        
SWSMCAN1         GAGE1            SCANWOL-I        1.921    55.0     288.0    1.0      0                        
SWSMCAN2         GAGE1            SCANWSM-I        1.921    55.0     288.0    1.0      0                        
SWSMETH1         GAGE1            SWOLHOM-I        2.153    55.0     323.0    1.0      0                        
SWSMETH2         GAGE1            SWSMHOM-I        2.153    55.0     323.0    1.0      0                        
SCANPRE          GAGE1            SCANPRE-I        3.3425   33.0     501.5    1.0      0                        

[SUBAREAS]
;;Subcatchment   N-Imperv   N-Perv     S-Imperv   S-Perv     PctZero    RouteTo    PctRouted 
;;-------------- ---------- ---------- ---------- ---------- ---------- ---------- ----------
CMCPWIN          0.015      0.25       2          5          25         OUTLET    
CMCPBAN          0.015      0.25       2          5          25         OUTLET    
CMCPELG          0.015      0.25       2          5          25         OUTLET    
CMCPPAC          0.015      0.25       2          5          25         OUTLET    
CPAC72           0.015      0.25       2          5          25         OUTLET    
CPAC75           0.015      0.25       2          5          25         OUTLET    
CALEXAN          0.015      0.25       2          5          25         OUTLET    
CLOG80           0.015      0.25       2          5          25         OUTLET    
CHEN90           0.015      0.25       2          5          25         OUTLET    
CHIGMAU          0.015      0.25       2          5          25         OUTLET    
CHEN90-R         0.015      0.25       2          5          25         OUTLET    
CHIGMAU-R        0.015      0.25       2          5          25         OUTLET    
CMCPLOG          0.015      0.25       2          5          25         OUTLET    
CLOGYEO          0.015      0.25       2          5          25         OUTLET    
CLOGYEO-R        0.015      0.25       2          5          25         OUTLET    
CLOGWNK          0.015      0.25       2          5          25         OUTLET    
CLOGCEC-R        0.015      0.25       2          5          25         OUTLET    
CLOGQUE-R        0.015      0.25       2          5          25         OUTLET    
CLOGVIN-R        0.015      0.25       2          5          25         OUTLET    
CLOGWNK-R        0.015      0.25       2          5          25         OUTLET    
CLOGELE          0.015      0.25       2          5          25         OUTLET    
CLOGVIN          0.015      0.25       2          5          25         OUTLET    
CLOGQUE          0.015      0.25       2          5          25         OUTLET    
CLOGCEC          0.015      0.25       2          5          25         OUTLET    
CCECROY          0.015      0.25       2          5          25         OUTLET    
SMCPWIN1         0.015      0.25       2          5          25         OUTLET    
SMCPWIN2         0.015      0.25       2          5          25         OUTLET    
SMCPBAN          0.015      0.25       2          5          25         OUTLET    
SMCPELG          0.015      0.25       2          5          25         OUTLET    
SMCPPAC          0.015      0.25       2          5          25         OUTLET    
SPAC72           0.015      0.25       2          5          25         OUTLET    
SPAC75           0.015      0.25       2          5          25         OUTLET    
SXANALE          0.015      0.25       2          5          25         OUTLET    
SLOG80           0.015      0.25       2          5          25         OUTLET    
SHEN90           0.015      0.25       2          5          25         OUTLET    
SHIGMAU          0.015      0.25       2          5          25         OUTLET    
SHEN90-R         0.015      0.25       2          5          25         OUTLET    
SHIGMAU-R        0.015      0.25       2          5          25         OUTLET    
SMCPLOG          0.015      0.25       2          5          25         OUTLET    
SLOGYEO          0.015      0.25       2          5          25         OUTLET    
SLOGYEO-R        0.015      0.25       2          5          25         OUTLET    
SLOGWNK          0.015      0.25       2          5          25         OUTLET    
SLOGCEC-R        0.015      0.25       2          5          25         OUTLET    
SLOGQUE-R        0.015      0.25       2          5          25         OUTLET    
SLOGVIN-R        0.015      0.25       2          5          25         OUTLET    
SLOGWNK-R        0.015      0.25       2          5          25         OUTLET    
SLOGELE          0.015      0.25       2          5          25         OUTLET    
SLOGVIN          0.015      0.25       2          5          25         OUTLET    
SLOGQUE          0.015      0.25       2          5          25         OUTLET    
SLOGCEC          0.015      0.25       2          5          25         OUTLET    
SCECROY          0.015      0.25       2          5          25         OUTLET    
CLIPSAR          0.015      0.25       2          5          25         OUTLET    
CSARBUR          0.015      0.25       2          5          25         OUTLET    
CSARARL          0.015      0.25       2          5          25         OUTLET    
CLIPWEL          0.015      0.25       2          5          25         OUTLET    
CWELSHB          0.015      0.25       2          5          25         OUTLET    
CWELDOM          0.015      0.25       2          5          25         OUTLET    
CLIPNOT          0.015      0.25       2          5          25         OUTLET    
CNOTDOM          0.015      0.25       2          5          25         OUTLET    
CNOTSHB          0.015      0.25       2          5          25         OUTLET    
SLIPSAR          0.015      0.25       2          5          25         OUTLET    
SSARBUR          0.015      0.25       2          5          25         OUTLET    
SSARARL1         0.015      0.25       2          5          25         OUTLET    
SSARARL2         0.015      0.25       2          5          25         OUTLET    
SSARARL3         0.015      0.25       2          5          25         OUTLET    
SLIPWEL1         0.015      0.25       2          5          25         OUTLET    
SLIPWEL2         0.015      0.25       2          5          25         OUTLET    
SWELSHB          0.015      0.25       2          5          25         OUTLET    
SWELDOM          0.015      0.25       2          5          25         OUTLET    
SLIPNOT1         0.015      0.25       2          5          25         OUTLET    
SLIPNOT2         0.015      0.25       2          5          25         OUTLET    
SNOTDOM1         0.015      0.25       2          5          25         OUTLET    
SNOTDOM2         0.015      0.25       2          5          25         OUTLET    
SNOTDOM3         0.015      0.25       2          5          25         OUTLET    
SNOTSHB          0.015      0.25       2          5          25         OUTLET    
CAUBPAL          0.015      0.25       2          5          25         OUTLET    
CAUBWOL          0.015      0.25       2          5          25         OUTLET    
CAUBWSM          0.015      0.25       2          5          25         OUTLET    
CELCGRF          0.015      0.25       2          5          25         OUTLET    
CELCING          0.015      0.25       2          5          25         OUTLET    
CLIPELC          0.015      0.25       2          5          25         OUTLET    
CLIPSMT          0.015      0.25       2          5          25         OUTLET    
CPORBAN          0.015      0.25       2          5          25         OUTLET    
CPORBUR          0.015      0.25       2          5          25         OUTLET    
CPORDOM          0.015      0.25       2          5          25         OUTLET    
CPORGRE          0.015      0.25       2          5          25         OUTLET    
CPORLIP          0.015      0.25       2          5          25         OUTLET    
CPORSHB          0.015      0.25       2          5          25         OUTLET    
CPORSPR          0.015      0.25       2          5          25         OUTLET    
CPORWLL          0.015      0.25       2          5          25         OUTLET    
CSMTING          0.015      0.25       2          5          25         OUTLET    
CSTMSHB          0.015      0.25       2          5          25         OUTLET    
SAUBPAL          0.015      0.25       2          5          25         OUTLET    
SAUBWOL          0.015      0.25       2          5          25         OUTLET    
SELCGRF1         0.015      0.25       2          5          25         OUTLET    
SELCGRF2         0.015      0.25       2          5          25         OUTLET    
SELCING          0.015      0.25       2          5          25         OUTLET    
SLIPELC          0.015      0.25       2          5          25         OUTLET    
SLIPSMT1         0.015      0.25       2          5          25         OUTLET    
SLIPSMT2         0.015      0.25       2          5          25         OUTLET    
SPORBAN1         0.015      0.25       2          5          25         OUTLET    
SPORBAN2         0.015      0.25       2          5          25         OUTLET    
SPORBUR1         0.015      0.25       2          5          25         OUTLET    
SPORBUR2         0.015      0.25       2          5          25         OUTLET    
SPORBUR3         0.015      0.25       2          5          25         OUTLET    
SPORBUR4         0.015      0.25       2          5          25         OUTLET    
SPORDOM1         0.015      0.25       2          5          25         OUTLET    
SPORDOM2         0.015      0.25       2          5          25         OUTLET    