[TITLE]
;;Project Title/Notes
Lavaca_Sample

[OPTIONS]
;;Option             Value
FLOW_UNITS           CMS
INFILTRATION         HORTON
FLOW_ROUTING         DYNWAVE
LINK_OFFSETS         DEPTH
MIN_SLOPE            0
ALLOW_PONDING        NO
SKIP_STEADY_STATE    NO

START_DATE           01/01/2000
START_TIME           00:00:00
REPORT_START_DATE    01/01/2000
REPORT_START_TIME    00:00:00
END_DATE       03/31/2000
END_TIME       00:00:00
SWEEP_START          01/01
SWEEP_END            12/31
DRY_DAYS             5
REPORT_STEP          00:10:00
WET_STEP             00:15:00
DRY_STEP             01:00:00
ROUTING_STEP         0:01:00 

INERTIAL_DAMPING     PARTIAL
NORMAL_FLOW_LIMITED  BOTH
FORCE_MAIN_EQUATION  D-W
VARIABLE_STEP        0.75
LENGTHENING_STEP     0
MIN_SURFAREA         12.557
MAX_TRIALS           8
HEAD_TOLERANCE       0.005
SYS_FLOW_TOL         5
LAT_FLOW_TOL         5
MINIMUM_STEP         0.5
THREADS              1

[EVAPORATION]
;;Data Source    Parameters
;;-------------- ----------------
CONSTANT         0.0
DRY_ONLY         NO

[JUNCTIONS]
;;Name           Elevation  MaxDepth   InitDepth  SurDepth   Aponded   
;;-------------- ---------- ---------- ---------- ---------- ----------

9001      160.368      0      0      0      0
101_0      160.366      0      0      0      0
101_1      160.365      0      0      0      0
101_2      160.363      0      0      0      0
101_3      160.362      0      0      0      0
101_4      160.360      0      0      0      0
101_5      160.359      0      0      0      0
101_6      160.357      0      0      0      0
9002      160.356      0      0      0      0
102_0      160.116      0      0      0      0
102_1      159.902      0      0      0      0
102_2      159.688      0      0      0      0
102_3      159.475      0      0      0      0
102_4      159.261      0      0      0      0
102_5      159.047      0      0      0      0
102_6      158.833      0      0      0      0
102_7      158.620      0      0      0      0
9003      158.380      0      0      0      0
103_0      158.312      0      0      0      0
103_1      158.248      0      0      0      0
103_2      158.184      0      0      0      0
103_3      158.119      0      0      0      0
103_4      158.055      0      0      0      0
103_5      157.991      0      0      0      0
103_6      157.926      0      0      0      0
103_7      157.862      0      0      0      0
103_8      157.798      0      0      0      0
103_9      157.733      0      0      0      0
103_10      157.669      0      0      0      0
103_11      157.605      0      0      0      0
103_12      157.541      0      0      0      0
103_13      157.476      0      0      0      0
103_14      157.412      0      0      0      0
103_15      157.348      0      0      0      0
103_16      157.283      0      0      0      0
103_17      157.219      0      0      0      0
103_18      157.155      0      0      0      0
103_19      157.090      0      0      0      0
9004      157.023      0      0      0      0
104_0      156.828      0      0      0      0
104_1      156.638      0      0      0      0
104_2      156.449      0      0      0      0
104_3      156.259      0      0      0      0
104_4      156.069      0      0      0      0
104_5      155.880      0      0      0      0
104_6      155.690      0      0      0      0
104_7      155.500      0      0      0      0
104_8      155.311      0      0      0      0
104_9      155.121      0      0      0      0
104_10      154.931      0      0      0      0
104_11      154.742      0      0      0      0
104_12      154.552      0      0      0      0
104_13      154.362      0      0      0      0
9005      154.167      0      0      0      0
105_0      154.148      0      0      0      0
105_1      154.129      0      0      0      0
105_2      154.110      0      0      0      0
105_3      154.090      0      0      0      0
105_4      154.071      0      0      0      0
105_5      154.052      0      0      0      0
105_6      154.033      0      0      0      0
105_7      154.014      0      0      0      0
105_8      153.995      0      0      0      0
105_9      153.976      0      0      0      0
105_10      153.957      0      0      0      0
105_11      153.938      0      0      0      0
105_12      153.919      0      0      0      0
105_13      153.900      0      0      0      0
105_14      153.881      0      0      0      0
105_15      153.861      0      0      0      0
105_16      153.842      0      0      0      0
105_17      153.823      0      0      0      0
105_18      153.804      0      0      0      0
105_19      153.785      0      0      0      0
105_20      153.766      0      0      0      0
105_21      153.747      0      0      0      0
105_22      153.728      0      0      0      0
105_23      153.709      0      0      0      0
105_24      153.690      0      0      0      0
105_25      153.671      0      0      0      0
105_26      153.651      0      0      0      0
105_27      153.632      0      0      0      0
105_28      153.613      0      0      0      0
105_29      153.594      0      0      0      0
105_30      153.575      0      0      0      0
105_31      153.556      0      0      0      0
105_32      153.537      0      0      0      0
105_33      153.518      0      0      0      0
9006      153.498      0      0      0      0
106_0      153.399      0      0      0      0
106_1      153.303      0      0      0      0
106_2      153.206      0      0      0      0
106_3      153.109      0      0      0      0
106_4      153.012      0      0      0      0
9007      152.913      0      0      0      0
107_0      152.911      0      0      0      0
107_1      152.910      0      0      0      0
107_2      152.908      0      0      0      0
107_3      152.907      0      0      0      0
107_4      152.906      0      0      0      0
107_5      152.904      0      0      0      0
107_6      152.903      0      0      0      0
107_7      152.901      0      0      0      0
107_8      152.900      0      0      0      0
107_9      152.898      0      0      0      0
107_10      152.897      0      0      0      0
9008      152.896      0      0      0      0
108_0      152.894      0      0      0      0
108_1      152.893      0      0      0      0
108_2      152.891      0      0      0      0
108_3      152.890      0      0      0      0
108_4      152.888      0      0      0      0
108_5      152.887      0      0      0      0
108_6      152.885      0      0      0      0
108_7      152.884      0      0      0      0
108_8      152.882      0      0      0      0
108_9      152.881      0      0      0      0
108_10      152.880      0      0      0      0
108_11      152.878      0      0      0      0
108_12      152.877      0      0      0      0
108_13      152.875      0      0      0      0
108_14      152.874      0      0      0      0
108_15      152.872      0      0      0      0
108_16      152.871      0      0      0      0
108_17      152.870      0      0      0      0
108_18      152.868      0      0      0      0
108_19      152.867      0      0      0      0
9009      152.865      0      0      0      0
109_0      152.864      0      0      0      0
109_1      152.862      0      0      0      0
109_2      152.861      0      0      0      0
9010      152.860      0      0      0      0
110_0      152.858      0      0      0      0
110_1      152.857      0      0      0      0
110_2      152.855      0      0      0      0
110_3      152.854      0      0      0      0
110_4      152.852      0      0      0      0
110_5      152.851      0      0      0      0
110_6      152.849      0      0      0      0
110_7      152.848      0      0      0      0
110_8      152.846      0      0      0      0
9011      152.845      0      0      0      0
111_0      152.843      0      0      0      0
111_1      152.842      0      0      0      0
111_2      152.840      0      0      0      0
111_3      152.839      0      0      0      0
111_4      152.837      0      0      0      0
111_5      152.836      0      0      0      0
111_6      152.834      0      0      0      0
111_7      152.833      0      0      0      0
111_8      152.831      0      0      0      0
111_9      152.830      0      0      0      0
111_10      152.829      0      0      0      0
111_11      152.827      0      0      0      0
111_12      152.826      0      0      0      0
111_13      152.824      0      0      0      0
111_14      152.823      0      0      0      0
111_15      152.821      0      0      0      0
111_16      152.820      0      0      0      0
111_17      152.818      0      0      0      0
111_18      152.817      0      0      0      0
111_19      152.815      0      0      0      0
111_20      152.814      0      0      0      0
111_21      152.812      0      0      0      0
111_22      152.811      0      0      0      0
111_23      152.809      0      0      0      0
111_24      152.808      0      0      0      0
111_25      152.806      0      0      0      0
111_26      152.805      0      0      0      0
111_27      152.803      0      0      0      0
111_28      152.802      0      0      0      0
111_29      152.800      0      0      0      0
111_30      152.799      0      0      0      0
111_31      152.798      0      0      0      0
111_32      152.796      0      0      0      0
111_33      152.795      0      0      0      0
111_34      152.793      0      0      0      0
111_35      152.792      0      0      0      0
111_36      152.790      0      0      0      0
111_37      152.789      0      0      0      0
111_38      152.787      0      0      0      0
111_39      152.786      0      0      0      0
111_40      152.784      0      0      0      0
111_41      152.783      0      0      0      0
111_42      152.781      0      0      0      0
111_43      152.780      0      0      0      0
111_44      152.778      0      0      0      0
111_45      152.777      0      0      0      0
111_46      152.775      0      0      0      0
111_47      152.774      0      0      0      0
111_48      152.772      0      0      0      0
111_49      152.771      0      0      0      0
111_50      152.769      0      0      0      0
111_51      152.768      0      0      0      0
111_52      152.766      0      0      0      0
9012      152.765      0      0      0      0
112_0      152.763      0      0      0      0
112_1      152.762      0      0      0      0
112_2      152.761      0      0      0      0
112_3      152.759      0      0      0      0
112_4      152.758      0      0      0      0
112_5      152.756      0      0      0      0
112_6      152.755      0      0      0      0
112_7      152.753      0      0      0      0
112_8      152.752      0      0      0      0
112_9      152.750      0      0      0      0
112_10      152.749      0      0      0      0
112_11      152.747      0      0      0      0
112_12      152.746      0      0      0      0
112_13      152.744      0      0      0      0
112_14      152.743      0      0      0      0
112_15      152.741      0      0      0      0
112_16      152.740      0      0      0      0
112_17      152.738      0      0      0      0
112_18      152.737      0      0      0      0
112_19      152.735      0      0      0      0

[OUTFALLS]
;;Name           Elevation  Type       Stage Data       Gated    Route To        
;;-------------- ---------- ---------- ---------------- -------- ----------------
9013      152.734      FIXED     3.0     NO


[CONDUITS]
;;Name           From Node        To Node          Length     Roughness  InOffset   OutOffset  InitFlow   MaxFlow   
;;-------------- ---------------- ---------------- ---------- ---------- ---------- ---------- ---------- ----------
1      101_0      101_1      148.2      0.05      0      0      0
2      101_1      101_2      148.2      0.05      0      0      0
3      101_2      101_3      148.2      0.05      0      0      0
4      101_3      101_4      148.2      0.05      0      0      0
5      101_4      101_5      148.2      0.05      0      0      0
6      101_5      101_6      148.2      0.05      0      0      0
7      102_0      102_1      133.6      0.05      0      0      0
8      102_1      102_2      133.6      0.05      0      0      0
9      102_2      102_3      133.6      0.05      0      0      0
10      102_3      102_4      133.6      0.05      0      0      0
11      102_4      102_5      133.6      0.05      0      0      0
12      102_5      102_6      133.6      0.05      0      0      0
13      102_6      102_7      133.6      0.05      0      0      0
14      103_0      103_1      142.9      0.05      0      0      0
15      103_1      103_2      142.9      0.05      0      0      0
16      103_2      103_3      142.9      0.05      0      0      0
17      103_3      103_4      142.9      0.05      0      0      0
18      103_4      103_5      142.9      0.05      0      0      0
19      103_5      103_6      142.9      0.05      0      0      0
20      103_6      103_7      142.9      0.05      0      0      0
21      103_7      103_8      142.9      0.05      0      0      0
22      103_8      103_9      142.9      0.05      0      0      0
23      103_9      103_10      142.9      0.05      0      0      0
24      103_10      103_11      142.9      0.05      0      0      0
25      103_11      103_12      142.9      0.05      0      0      0
26      103_12      103_13      142.9      0.05      0      0      0
27      103_13      103_14      142.9      0.05      0      0      0
28      103_14      103_15      142.9      0.05      0      0      0
29      103_15      103_16      142.9      0.05      0      0      0
30      103_16      103_17      142.9      0.05      0      0      0
31      103_17      103_18      142.9      0.05      0      0      0
32      103_18      103_19      142.9      0.05      0      0      0
33      104_0      104_1      145.9      0.05      0      0      0
34      104_1      104_2      145.9      0.05      0      0      0
35      104_2      104_3      145.9      0.05      0      0      0
36      104_3      104_4      145.9      0.05      0      0      0
37      104_4      104_5      145.9      0.05      0      0      0
38      104_5      104_6      145.9      0.05      0      0      0
39      104_6      104_7      145.9      0.05      0      0      0
40      104_7      104_8      145.9      0.05      0      0      0
41      104_8      104_9      145.9      0.05      0      0      0
42      104_9      104_10      145.9      0.05      0      0      0
43      104_10      104_11      145.9      0.05      0      0      0
44      104_11      104_12      145.9      0.05      0      0      0
45      104_12      104_13      145.9      0.05      0      0      0
46      105_0      105_1      146.8      0.05      0      0      0
47      105_1      105_2      146.8      0.05      0      0      0
48      105_2      105_3      146.8      0.05      0      0      0
49      105_3      105_4      146.8      0.05      0      0      0
50      105_4      105_5      146.8      0.05      0      0      0
51      105_5      105_6      146.8      0.05      0      0      0
52      105_6      105_7      146.8      0.05      0      0      0
53      105_7      105_8      146.8      0.05      0      0      0
54      105_8      105_9      146.8      0.05      0      0      0
55      105_9      105_10      146.8      0.05      0      0      0
56      105_10      105_11      146.8      0.05      0      0      0
57      105_11      105_12      146.8      0.05      0      0      0
58      105_12      105_13      146.8      0.05      0      0      0
59      105_13      105_14      146.8      0.05      0      0      0
60      105_14      105_15      146.8      0.05      0      0      0
61      105_15      105_16      146.8      0.05      0      0      0
62      105_16      105_17      146.8      0.05      0      0      0
63      105_17      105_18      146.8      0.05      0      0      0
64      105_18      105_19      146.8      0.05      0      0      0
65      105_19      105_20      146.8      0.05      0      0      0
66      105_20      105_21      146.8      0.05      0      0      0
67      105_21      105_22      146.8      0.05      0      0      0
68      105_22      105_23      146.8      0.05      0      0      0
69      105_23      105_24      146.8      0.05      0      0      0
70      105_24      105_25      146.8      0.05      0      0      0
71      105_25      105_26      146.8      0.05      0      0      0
72      105_26      105_27      146.8      0.05      0      0      0
73      105_27      105_28      146.8      0.05      0      0      0
74      105_28      105_29      146.8      0.05      0      0      0
75      105_29      105_30      146.8      0.05      0      0      0
76      105_30      105_31      146.8      0.05      0      0      0
77      105_31      105_32      146.8      0.05      0      0      0
78      105_32      105_33      146.8      0.05      0      0      0
79      106_0      106_1      146.8      0.05      0      0      0
80      106_1      106_2      146.8      0.05      0      0      0
81      106_2      106_3      146.8      0.05      0      0      0
82      106_3      106_4      146.8      0.05      0      0      0
83      107_0      107_1      143.3      0.05      0      0      0
84      107_1      107_2      143.3      0.05      0      0      0
85      107_2      107_3      143.3      0.05      0      0      0
86      107_3      107_4      143.3      0.05      0      0      0
87      107_4      107_5      143.3      0.05      0      0      0
88      107_5      107_6      143.3      0.05      0      0      0
89      107_6      107_7      143.3      0.05      0      0      0
90      107_7      107_8      143.3      0.05      0      0      0
91      107_8      107_9      143.3      0.05      0      0      0
92      107_9      107_10      143.3      0.05      0      0      0
93      108_0      108_1      144.1      0.05      0      0      0
94      108_1      108_2      144.1      0.05      0      0      0
95      108_2      108_3      144.1      0.05      0      0      0
96      108_3      108_4      144.1      0.05      0      0      0
97      108_4      108_5      144.1      0.05      0      0      0
98      108_5      108_6      144.1      0.05      0      0      0
99      108_6      108_7      144.1      0.05      0      0      0
100      108_7      108_8      144.1      0.05      0      0      0
101      108_8      108_9      144.1      0.05      0      0      0
102      108_9      108_10      144.1      0.05      0      0      0
103      108_10      108_11      144.1      0.05      0      0      0
104      108_11      108_12      144.1      0.05      0      0      0
105      108_12      108_13      144.1      0.05      0      0      0
106      108_13      108_14      144.1      0.05      0      0      0
107      108_14      108_15      144.1      0.05      0      0      0
108      108_15      108_16      144.1      0.05      0      0      0
109      108_16      108_17      144.1      0.05      0      0      0
110      108_17      108_18      144.1      0.05      0      0      0
111      108_18      108_19      144.1      0.05      0      0      0
112      109_0      109_1      125      0.05      0      0      0
113      109_1      109_2      125      0.05      0      0      0
114      110_0      110_1      148      0.05      0      0      0
115      110_1      110_2      148      0.05      0      0      0
116      110_2      110_3      148      0.05      0      0      0
117      110_3      110_4      148      0.05      0      0      0
118      110_4      110_5      148      0.05      0      0      0
119      110_5      110_6      148      0.05      0      0      0
120      110_6      110_7      148      0.05      0      0      0
121      110_7      110_8      148      0.05      0      0      0
122      111_0      111_1      147.7      0.05      0      0      0
123      111_1      111_2      147.7      0.05      0      0      0
124      111_2      111_3      147.7      0.05      0      0      0
125      111_3      111_4      147.7      0.05      0      0      0
126      111_4      111_5      147.7      0.05      0      0      0
127      111_5      111_6      147.7      0.05      0      0      0
128      111_6      111_7      147.7      0.05      0      0      0
129      111_7      111_8      147.7      0.05      0      0      0
130      111_8      111_9      147.7      0.05      0      0      0
131      111_9      111_10      147.7      0.05      0      0      0
132      111_10      111_11      147.7      0.05      0      0      0
133      111_11      111_12      147.7      0.05      0      0      0
134      111_12      111_13      147.7      0.05      0      0      0
135      111_13      111_14      147.7      0.05      0      0      0
136      111_14      111_15      147.7      0.05      0      0      0
137      111_15      111_16      147.7      0.05      0      0      0
138      111_16      111_17      147.7      0.05      0      0      0
139      111_17      111_18      147.7      0.05      0      0      0
140      111_18      111_19      147.7      0.05      0      0      0
141      111_19      111_20      147.7      0.05      0      0      0
142      111_20      111_21      147.7      0.05      0      0      0
143      111_21      111_22      147.7      0.05      0      0      0
144      111_22      111_23      147.7      0.05      0      0      0
145      111_23      111_24      147.7      0.05      0      0      0
146      111_24      111_25      147.7      0.05      0      0      0
147      111_25      111_26      147.7      0.05      0      0      0
148      111_26      111_27      147.7      0.05      0      0      0
149      111_27      111_28      147.7      0.05      0      0      0
150      111_28      111_29      147.7      0.05      0      0      0
151      111_29      111_30      147.7      0.05      0      0      0
152      111_30      111_31      147.7      0.05      0      0      0
153      111_31      111_32      147.7      0.05      0      0      0
154      111_32      111_33      147.7      0.05      0      0      0
155      111_33      111_34      147.7      0.05      0      0      0
156      111_34      111_35      147.7      0.05      0      0      0
157      111_35      111_36      147.7      0.05      0      0      0
158      111_36      111_37      147.7      0.05      0      0      0
159      111_37      111_38      147.7      0.05      0      0      0
160      111_38      111_39      147.7      0.05      0      0      0
161      111_39      111_40      147.7      0.05      0      0      0
162      111_40      111_41      147.7      0.05      0      0      0
163      111_41      111_42      147.7      0.05      0      0      0
164      111_42      111_43      147.7      0.05      0      0      0
165      111_43      111_44      147.7      0.05      0      0      0
166      111_44      111_45      147.7      0.05      0      0      0
167      111_45      111_46      147.7      0.05      0      0      0
168      111_46      111_47      147.7      0.05      0      0      0
169      111_47      111_48      147.7      0.05      0      0      0
170      111_48      111_49      147.7      0.05      0      0      0
171      111_49      111_50      147.7      0.05      0      0      0
172      111_50      111_51      147.7      0.05      0      0      0
173      111_51      111_52      147.7      0.05      0      0      0
174      112_0      112_1      148.7      0.05      0      0      0
175      112_1      112_2      148.7      0.05      0      0      0
176      112_2      112_3      148.7      0.05      0      0      0
177      112_3      112_4      148.7      0.05      0      0      0
178      112_4      112_5      148.7      0.05      0      0      0
179      112_5      112_6      148.7      0.05      0      0      0
180      112_6      112_7      148.7      0.05      0      0      0
181      112_7      112_8      148.7      0.05      0      0      0
182      112_8      112_9      148.7      0.05      0      0      0
183      112_9      112_10      148.7      0.05      0      0      0
184      112_10      112_11      148.7      0.05      0      0      0
185      112_11      112_12      148.7      0.05      0      0      0
186      112_12      112_13      148.7      0.05      0      0      0
187      112_13      112_14      148.7      0.05      0      0      0
188      112_14      112_15      148.7      0.05      0      0      0
189      112_15      112_16      148.7      0.05      0      0      0
190      112_16      112_17      148.7      0.05      0      0      0
191      112_17      112_18      148.7      0.05      0      0      0
192      112_18      112_19      148.7      0.05      0      0      0
9001101      9001      101_0      150      0.050      0      0      0
1019002      101_6      9002      150      0.050      0      0      0      
9002102      9002      102_0      150      0.050      0      0      0      
1029003      102_7      9003      150      0.050      0      0      0      
9003103      9003      103_0      150      0.050      0      0      0      
1039004      103_19      9004      150      0.050      0      0      0      
9004104      9004      104_0      150      0.050      0      0      0      
1049005      104_13      9005      150      0.050      0      0      0      
9005105      9005      105_0      150      0.050      0      0      0      
1059006      105_33      9006      150      0.050      0      0      0      
9006106      9006      106_0      150      0.050      0      0      0      
1069007      106_4      9007      150      0.050      0      0      0      
9007107      9007      107_0      150      0.050      0      0      0      
1079008      107_10      9008      150      0.050      0      0      0      
9008108      9008      108_0      150      0.050      0      0      0      
1089009      108_19      9009      150      0.050      0      0      0      
9009109      9009      109_0      150      0.050      0      0      0      
1099010      109_2      9010      150      0.050      0      0      0      
9010110      9010      110_0      150      0.050      0      0      0      
1109011      110_8      9011      150      0.050      0      0      0      
9011111      9011      111_0      150      0.050      0      0      0      
1119012      111_52      9012      150      0.050      0      0      0      
9012112      9012      112_0      150      0.050      0      0      0      
1129013      112_19      9013      150      0.050      0      0      0      

[XSECTIONS]
;;Link           Shape        Geom1            Geom2      Geom3      Geom4      Barrels    Culvert   
;;-------------- ------------ ---------------- ---------- ---------- ---------- ---------- ----------
1      TRAPEZOIDAL      100      30      0.05      0.05
2      TRAPEZOIDAL      100      30      0.05      0.05
3      TRAPEZOIDAL      100      30      0.05      0.05
4      TRAPEZOIDAL      100      30      0.05      0.05
5      TRAPEZOIDAL      100      30      0.05      0.05
6      TRAPEZOIDAL      100      30      0.05      0.05
7      TRAPEZOIDAL      100      30      0.05      0.05
8      TRAPEZOIDAL      100      30      0.05      0.05
9      TRAPEZOIDAL      100      30      0.05      0.05
10      TRAPEZOIDAL      100      30      0.05      0.05
11      TRAPEZOIDAL      100      30      0.05      0.05
12      TRAPEZOIDAL      100      30      0.05      0.05
13      TRAPEZOIDAL      100      30      0.05      0.05
14      TRAPEZOIDAL      100      30      0.05      0.05
15      TRAPEZOIDAL      100      30      0.05      0.05
16      TRAPEZOIDAL      100      30      0.05      0.05
17      TRAPEZOIDAL      100      30      0.05      0.05
18      TRAPEZOIDAL      100      30      0.05      0.05
19      TRAPEZOIDAL      100      30      0.05      0.05
20      TRAPEZOIDAL      100      30      0.05      0.05
21      TRAPEZOIDAL      100      30      0.05      0.05
22      TRAPEZOIDAL      100      30      0.05      0.05
23      TRAPEZOIDAL      100      30      0.05      0.05
24      TRAPEZOIDAL      100      30      0.05      0.05
25      TRAPEZOIDAL      100      30      0.05      0.05
26      TRAPEZOIDAL      100      30      0.05      0.05
27      TRAPEZOIDAL      100      30      0.05      0.05
28      TRAPEZOIDAL      100      30      0.05      0.05
29      TRAPEZOIDAL      100      30      0.05      0.05
30      TRAPEZOIDAL      100      30      0.05      0.05
31      TRAPEZOIDAL      100      30      0.05      0.05
32      TRAPEZOIDAL      100      30      0.05      0.05
33      TRAPEZOIDAL      100      30      0.05      0.05
34      TRAPEZOIDAL      100      30      0.05      0.05
35      TRAPEZOIDAL      100      30      0.05      0.05
36      TRAPEZOIDAL      100      30      0.05      0.05
37      TRAPEZOIDAL      100      30      0.05      0.05
38      TRAPEZOIDAL      100      30      0.05      0.05
39      TRAPEZOIDAL      100      30      0.05      0.05
40      TRAPEZOIDAL      100      30      0.05      0.05
41      TRAPEZOIDAL      100      30      0.05      0.05
42      TRAPEZOIDAL      100      30      0.05      0.05
43      TRAPEZOIDAL      100      30      0.05      0.05
44      TRAPEZOIDAL      100      30      0.05      0.05
45      TRAPEZOIDAL      100      30      0.05      0.05
46      TRAPEZOIDAL      100      30      0.05      0.05
47      TRAPEZOIDAL      100      30      0.05      0.05
48      TRAPEZOIDAL      100      30      0.05      0.05
49      TRAPEZOIDAL      100      30      0.05      0.05
50      TRAPEZOIDAL      100      30      0.05      0.05
51      TRAPEZOIDAL      100      30      0.05      0.05