; Downloaded from OpenSWMM topic https://www.openswmm.org/Thread/26371/control-settings-for-flow-regulators on 16-Jun-2022 02:46
;File: "TeardropPark_DiscreteOrificeControl.inp"

[TITLE]
Illustration of discrete orifice control settings in SWMM5.

[OPTIONS]
;;Options            Value
FLOW_UNITS           CFS
INFILTRATION         HORTON
FLOW_ROUTING         DYNWAVE
LINK_OFFSETS         DEPTH
MIN_SLOPE            0
ALLOW_PONDING        NO
SKIP_STEADY_STATE    NO
START_DATE           10/29/2012
START_TIME           18:00:00
REPORT_START_DATE    10/29/2012
REPORT_START_TIME    18:00:00
END_DATE             10/29/2012
END_TIME             22:39:00
SWEEP_START          01/01
SWEEP_END            12/31
DRY_DAYS             0
REPORT_STEP          00:00:01
WET_STEP             00:05:00
DRY_STEP             00:05:00
ROUTING_STEP         1
RULE_STEP            00:00:00
INERTIAL_DAMPING     NONE
NORMAL_FLOW_LIMITED  BOTH
FORCE_MAIN_EQUATION  H-W
VARIABLE_STEP        0
LENGTHENING_STEP     0
MIN_SURFAREA         0
MAX_TRIALS           8
HEAD_TOLERANCE       0.0015
SYS_FLOW_TOL         5
LAT_FLOW_TOL         5
MINIMUM_STEP         0.5
THREADS              4
IGNORE_RAINFALL      YES

[EVAPORATION]
;;Type          Parameters
CONSTANT     0.0
DRY_ONLY     NO

[JUNCTIONS]
;;               Invert     Max.       Init.      Surcharge  Ponded    
;;Name           Elev.      Depth      Depth      Depth      Area      
Junction         10         10         0          0          0         
 
[OUTFALLS]
;;               Invert     Outfall      Stage/Table      Tide
;;Name           Elev.      Type         Time Series      Gate Route To        
Outfall          0          TIMESERIES   NOAA_8518750     NO                   

[STORAGE]
;;               Invert   Max.     Init.    Storage    Curve                               Evap.   
;;Name           Elev.    Depth    Depth    Curve      Params                              Frac.    Infiltration parameters
Tank             10       10       0        TABULAR    sTank              0        0       
 
[CONDUITS]
;;               Inlet            Outlet                      Manning    Inlet      Outlet     Init.      Max.      
;;Name           Node             Node             Length     N          Offset     Offset     Flow       Flow      
Conduit          Junction         Outfall          537.25     0.014      0          0          0          0         
 
[ORIFICES]
;;               Inlet            Outlet           Orifice      Crest      Disch.     Flap Open/Close
;;Name           Node             Node             Type         Height     Coeff.     Gate Time      
Orifice          Tank             Junction         SIDE         0          0.6        NO   0         
 
[WEIRS]
;;               Inlet            Outlet           Weir         Crest      Disch.     Flap End      End       
;;Name           Node             Node             Type         Height     Coeff.     Gate Con.     Coeff.     Surcharge  
OverflowWeir     Tank             Junction         TRANSVERSE   4          3.33       NO   2        0          YES       
 
[XSECTIONS]
;;Link           Shape        Geom1            Geom2      Geom3      Geom4      Barrels   
Conduit          CIRCULAR     1.5              0          0          0          1                    
Orifice          CIRCULAR     0.5              0          0          0
OverflowWeir     RECT_OPEN    0.3              6          0          0         
 
[CONTROLS]
RULE 1
IF NODE Tank DEPTH >= 3.5
THEN ORIFICE Orifice SETTING = 1.0
RULE 2
IF NODE Tank DEPTH >= 3.0
THEN ORIFICE Orifice SETTING = 0.75
RULE 3
IF NODE Tank DEPTH >= 2.5
THEN ORIFICE Orifice SETTING = 0.5
RULE 4
IF NODE Tank DEPTH >= 2.0
THEN ORIFICE Orifice SETTING = 0.25
RULE 5
IF NODE Tank DEPTH < 2.0
THEN ORIFICE Orifice SETTING = 0.0
 
[INFLOWS]
;;                                                 Param    Units    Scale    Baseline Baseline
;;Node           Parameter        Time Series      Type     Factor   Factor   Value    Pattern
Tank             FLOW             TankInflow       FLOW     1.0      1        0                
 
[CURVES]
;;Name           Type       X-Value    Y-Value   
;120,000 gallon underground tank
sTank    Storage    0          4000      
sTank               4          4000      
sTank               4.01       12.6      
sTank               10         12.6      
 
[TIMESERIES]
;;Name           Date       Time       Value     
;Head (ft-datum)
NOAA_8518750     10/29/2012 18:00:00   2.566     
NOAA_8518750     10/29/2012 18:06:00   2.533     
NOAA_8518750     10/29/2012 18:12:00   2.523     
NOAA_8518750     10/29/2012 18:18:00   2.526     
NOAA_8518750     10/29/2012 18:24:00   2.533     
NOAA_8518750     10/29/2012 18:30:00   2.543     
NOAA_8518750     10/29/2012 18:36:00   2.556     
NOAA_8518750     10/29/2012 18:42:00   2.648     
NOAA_8518750     10/29/2012 18:48:00   2.697     
NOAA_8518750     10/29/2012 18:54:00   2.795     
NOAA_8518750     10/29/2012 19:00:00   2.867     
NOAA_8518750     10/29/2012 19:06:00   2.969     
NOAA_8518750     10/29/2012 19:12:00   3.064     
NOAA_8518750     10/29/2012 19:18:00   3.241     
NOAA_8518750     10/29/2012 19:24:00   3.392     
NOAA_8518750     10/29/2012 19:30:00   3.527     
NOAA_8518750     10/29/2012 19:36:00   3.681     
NOAA_8518750     10/29/2012 19:42:00   3.783     
NOAA_8518750     10/29/2012 19:48:00   3.894     
NOAA_8518750     10/29/2012 19:54:00   3.983     
NOAA_8518750     10/29/2012 20:00:00   4.14      
NOAA_8518750     10/29/2012 20:06:00   4.308     
NOAA_8518750     10/29/2012 20:12:00   4.442     
NOAA_8518750     10/29/2012 20:18:00   4.573     
NOAA_8518750     10/29/2012 20:24:00   4.754     
NOAA_8518750     10/29/2012 20:30:00   4.869     
NOAA_8518750     10/29/2012 20:36:00   5.049     
NOAA_8518750     10/29/2012 20:42:00   5.217     
NOAA_8518750     10/29/2012 20:48:00   5.344     
NOAA_8518750     10/29/2012 20:54:00   5.495     
NOAA_8518750     10/29/2012 21:00:00   5.581     
NOAA_8518750     10/29/2012 21:06:00   5.696     
NOAA_8518750     10/29/2012 21:12:00   5.801     
NOAA_8518750     10/29/2012 21:18:00   5.951     
NOAA_8518750     10/29/2012 21:24:00   6.089     
NOAA_8518750     10/29/2012 21:30:00   6.217     
NOAA_8518750     10/29/2012 21:36:00   6.355     
NOAA_8518750     10/29/2012 21:42:00   6.519     
NOAA_8518750     10/29/2012 21:48:00   6.657     
NOAA_8518750     10/29/2012 21:54:00   6.811     
NOAA_8518750     10/29/2012 22:00:00   6.955     
NOAA_8518750     10/29/2012 22:06:00   7.073     
NOAA_8518750     10/29/2012 22:12:00   7.283     
NOAA_8518750     10/29/2012 22:18:00   7.444     
NOAA_8518750     10/29/2012 22:24:00   7.566     
NOAA_8518750     10/29/2012 22:30:00   7.733     
NOAA_8518750     10/29/2012 22:36:00   7.9       
NOAA_8518750     10/29/2012 22:42:00   8.038     
NOAA_8518750     10/29/2012 22:48:00   8.235     
NOAA_8518750     10/29/2012 22:54:00   8.422     
NOAA_8518750     10/29/2012 23:00:00   8.606     
NOAA_8518750     10/29/2012 23:06:00   8.766     
NOAA_8518750     10/29/2012 23:12:00   8.98      
NOAA_8518750     10/29/2012 23:18:00   9.242     
NOAA_8518750     10/29/2012 23:24:00   9.462     
NOAA_8518750     10/29/2012 23:30:00   9.708     
NOAA_8518750     10/29/2012 23:36:00   9.918     
NOAA_8518750     10/29/2012 23:42:00   10.135    
NOAA_8518750     10/29/2012 23:48:00   10.318    
NOAA_8518750     10/29/2012 23:54:00   10.427    
NOAA_8518750     10/30/2012 00:00:00   10.531    
NOAA_8518750     10/30/2012 00:06:00   10.584    
NOAA_8518750     10/30/2012 00:12:00   10.653    
NOAA_8518750     10/30/2012 00:18:00   10.735    
NOAA_8518750     10/30/2012 00:24:00   10.794    
NOAA_8518750     10/30/2012 00:30:00   10.85     
NOAA_8518750     10/30/2012 00:36:00   10.932    
NOAA_8518750     10/30/2012 00:42:00   11.04     
NOAA_8518750     10/30/2012 00:48:00   11.112    
NOAA_8518750     10/30/2012 00:54:00   11.178    
NOAA_8518750     10/30/2012 01:00:00   11.211    
NOAA_8518750     10/30/2012 01:06:00   11.25     
NOAA_8518750     10/30/2012 01:12:00   11.263    
NOAA_8518750     10/30/2012 01:18:00   11.27     
NOAA_8518750     10/30/2012 01:24:00   11.28     
NOAA_8518750     10/30/2012 01:30:00   11.181    
NOAA_8518750     10/30/2012 01:36:00   11.112    
NOAA_8518750     10/30/2012 01:42:00   11.024    
NOAA_8518750     10/30/2012 01:48:00   10.935    
NOAA_8518750     10/30/2012 01:54:00   10.797    
NOAA_8518750     10/30/2012 02:00:00   10.692    
NOAA_8518750     10/30/2012 02:06:00   10.531    
NOAA_8518750     10/30/2012 02:12:00   10.377    
NOAA_8518750     10/30/2012 02:18:00   10.24     
NOAA_8518750     10/30/2012 02:24:00   10.066    
NOAA_8518750     10/30/2012 02:30:00   9.872     
NOAA_8518750     10/30/2012 02:36:00   9.639     
NOAA_8518750     10/30/2012 02:42:00   9.442     
NOAA_8518750     10/30/2012 02:48:00   9.232     
NOAA_8518750     10/30/2012 02:54:00   8.973     
NOAA_8518750     10/30/2012 03:00:00   8.678     
NOAA_8518750     10/30/2012 03:06:00   8.392     
NOAA_8518750     10/30/2012 03:12:00   8.13      
NOAA_8518750     10/30/2012 03:18:00   7.818     
NOAA_8518750     10/30/2012 03:24:00   7.493     
NOAA_8518750     10/30/2012 03:30:00   7.152     
NOAA_8518750     10/30/2012 03:36:00   6.87      
NOAA_8518750     10/30/2012 03:42:00   6.552     
NOAA_8518750     10/30/2012 03:48:00   6.24      
NOAA_8518750     10/30/2012 03:54:00   5.935     
NOAA_8518750     10/30/2012 04:00:00   5.659     
NOAA_8518750     10/30/2012 04:06:00   5.344     
NOAA_8518750     10/30/2012 04:12:00   5.079     
NOAA_8518750     10/30/2012 04:18:00   4.885     
NOAA_8518750     10/30/2012 04:24:00   4.718     
NOAA_8518750     10/30/2012 04:30:00   4.491     
NOAA_8518750     10/30/2012 04:36:00   4.354     
NOAA_8518750     10/30/2012 04:42:00   4.163     
NOAA_8518750     10/30/2012 04:48:00   3.999     
NOAA_8518750     10/30/2012 04:54:00   3.829     
NOAA_8518750     10/30/2012 05:00:00   3.688     
NOAA_8518750     10/30/2012 05:06:00   3.543     
NOAA_8518750     10/30/2012 05:12:00   3.409     
NOAA_8518750     10/30/2012 05:18:00   3.264     
NOAA_8518750     10/30/2012 05:24:00   3.13      
NOAA_8518750     10/30/2012 05:30:00   3.045     
NOAA_8518750     10/30/2012 05:36:00   2.917     
NOAA_8518750     10/30/2012 05:42:00   2.795     
NOAA_8518750     10/30/2012 05:48:00   2.579     
NOAA_8518750     10/30/2012 05:54:00   2.428     
NOAA_8518750     10/30/2012 06:00:00   2.3       
NOAA_8518750     10/30/2012 06:06:00   2.169     
NOAA_8518750     10/30/2012 06:12:00   2.024     
NOAA_8518750     10/30/2012 06:18:00   1.896     
NOAA_8518750     10/30/2012 06:24:00   1.759     
NOAA_8518750     10/30/2012 06:30:00   1.637     
NOAA_8518750     10/30/2012 06:36:00   1.532     
NOAA_8518750     10/30/2012 06:42:00   1.427     
NOAA_8518750     10/30/2012 06:48:00   1.302     
NOAA_8518750     10/30/2012 06:54:00   1.184     
NOAA_8518750     10/30/2012 07:00:00   1.096     
NOAA_8518750     10/30/2012 07:06:00   1.017     
NOAA_8518750     10/30/2012 07:12:00   0.978     
NOAA_8518750     10/30/2012 07:18:00   0.909     
NOAA_8518750     10/30/2012 07:24:00   0.856     
NOAA_8518750     10/30/2012 07:30:00   0.833     
NOAA_8518750     10/30/2012 07:36:00   0.83      
NOAA_8518750     10/30/2012 07:42:00   0.86      
NOAA_8518750     10/30/2012 07:48:00   0.892     
NOAA_8518750     10/30/2012 07:54:00   0.935     
NOAA_8518750     10/30/2012 08:00:00   1.017     
NOAA_8518750     10/30/2012 08:06:00   1.093     
NOAA_8518750     10/30/2012 08:12:00   1.217     
NOAA_8518750     10/30/2012 08:18:00   1.273     
NOAA_8518750     10/30/2012 08:24:00   1.362     
NOAA_8518750     10/30/2012 08:30:00   1.427     
NOAA_8518750     10/30/2012 08:36:00   1.529     
NOAA_8518750     10/30/2012 08:42:00   1.631     
NOAA_8518750     10/30/2012 08:48:00   1.752     
NOAA_8518750     10/30/2012 08:54:00   1.886     
NOAA_8518750     10/30/2012 09:00:00   2.031     
NOAA_8518750     10/30/2012 09:06:00   2.192     
NOAA_8518750     10/30/2012 09:12:00   2.352     
NOAA_8518750     10/30/2012 09:18:00   2.507     
NOAA_8518750     10/30/2012 09:24:00   2.667     
NOAA_8518750     10/30/2012 09:30:00   2.795     
NOAA_8518750     10/30/2012 09:36:00   2.933     
NOAA_8518750     10/30/2012 09:42:00   3.097     
NOAA_8518750     10/30/2012 09:48:00   3.222     
NOAA_8518750     10/30/2012 09:54:00   3.337     
NOAA_8518750     10/30/2012 10:00:00   3.435     
NOAA_8518750     10/30/2012 10:06:00   3.497     
NOAA_8518750     10/30/2012 10:12:00   3.622     
NOAA_8518750     10/30/2012 10:18:00   3.724     
NOAA_8518750     10/30/2012 10:24:00   3.763     
NOAA_8518750     10/30/2012 10:30:00   3.842     
NOAA_8518750     10/30/2012 10:36:00   3.921     
NOAA_8518750     10/30/2012 10:42:00   3.973     
NOAA_8518750     10/30/2012 10:48:00   4.026     
NOAA_8518750     10/30/2012 10:54:00   4.088     
NOAA_8518750     10/30/2012 11:00:00   4.15      
NOAA_8518750     10/30/2012 11:06:00   4.199     
NOAA_8518750     10/30/2012 11:12:00   4.265     
NOAA_8518750     10/30/2012 11:18:00   4.298     
NOAA_8518750     10/30/2012 11:24:00   4.314     
NOAA_8518750     10/30/2012 11:30:00   4.314     
NOAA_8518750     10/30/2012 11:36:00   4.321     
NOAA_8518750     10/30/2012 11:42:00   4.341     
NOAA_8518750     10/30/2012 11:48:00   4.341     
NOAA_8518750     10/30/2012 11:54:00   4.37      
NOAA_8518750     10/30/2012 12:00:00   4.377     
NOAA_8518750     10/30/2012 12:06:00   4.377     
NOAA_8518750     10/30/2012 12:12:00   4.386     
NOAA_8518750     10/30/2012 12:18:00   4.38      
NOAA_8518750     10/30/2012 12:24:00   4.373     
NOAA_8518750     10/30/2012 12:30:00   4.396     
NOAA_8518750     10/30/2012 12:36:00   4.432     
NOAA_8518750     10/30/2012 12:42:00   4.508     
NOAA_8518750     10/30/2012 12:48:00   4.547     
NOAA_8518750     10/30/2012 12:54:00   4.56      
NOAA_8518750     10/30/2012 13:00:00   4.531     
NOAA_8518750     10/30/2012 13:06:00   4.485     
NOAA_8518750     10/30/2012 13:12:00   4.462     
NOAA_8518750     10/30/2012 13:18:00   4.482     
NOAA_8518750     10/30/2012 13:24:00   4.482     
NOAA_8518750     10/30/2012 13:30:00   4.478     
NOAA_8518750     10/30/2012 13:36:00   4.478     
NOAA_8518750     10/30/2012 13:42:00   4.524     
NOAA_8518750     10/30/2012 13:48:00   4.58      
NOAA_8518750     10/30/2012 13:54:00   4.606     
NOAA_8518750     10/30/2012 14:00:00   4.633     
NOAA_8518750     10/30/2012 14:06:00   4.669     
NOAA_8518750     10/30/2012 14:12:00   4.705     
NOAA_8518750     10/30/2012 14:18:00   4.695     
NOAA_8518750     10/30/2012 14:24:00   4.649     
NOAA_8518750     10/30/2012 14:30:00   4.623     
NOAA_8518750     10/30/2012 14:36:00   4.567     
NOAA_8518750     10/30/2012 14:42:00   4.475     
NOAA_8518750     10/30/2012 14:48:00   4.36      
NOAA_8518750     10/30/2012 14:54:00   4.239     
NOAA_8518750     10/30/2012 15:00:00   4.104     
NOAA_8518750     10/30/2012 15:06:00   4.019     
NOAA_8518750     10/30/2012 15:12:00   3.917     
NOAA_8518750     10/30/2012 15:18:00   3.839     
NOAA_8518750     10/30/2012 15:24:00   3.75      
NOAA_8518750     10/30/2012 15:30:00   3.632     
NOAA_8518750     10/30/2012 15:36:00   3.501     
NOAA_8518750     10/30/2012 15:42:00   3.402     
NOAA_8518750     10/30/2012 15:48:00   3.294     
NOAA_8518750     10/30/2012 15:54:00   3.205     
NOAA_8518750     10/30/2012 16:00:00   3.058     
NOAA_8518750     10/30/2012 16:06:00   2.867     
NOAA_8518750     10/30/2012 16:12:00   2.71      
NOAA_8518750     10/30/2012 16:18:00   2.513     
NOAA_8518750     10/30/2012 16:24:00   2.385     
NOAA_8518750     10/30/2012 16:30:00   2.247     
NOAA_8518750     10/30/2012 16:36:00   2.119     
NOAA_8518750     10/30/2012 16:42:00   1.962     
NOAA_8518750     10/30/2012 16:48:00   1.818     
NOAA_8518750     10/30/2012 16:54:00   1.663     
NOAA_8518750     10/30/2012 17:00:00   1.512     
NOAA_8518750     10/30/2012 17:06:00   1.332     
NOAA_8518750     10/30/2012 17:12:00   1.184     
NOAA_8518750     10/30/2012 17:18:00   1.037     
NOAA_8518750     10/30/2012 17:24:00   0.909     
NOAA_8518750     10/30/2012 17:30:00   0.787     
NOAA_8518750     10/30/2012 17:36:00   0.65      
NOAA_8518750     10/30/2012 17:42:00   0.561     
NOAA_8518750     10/30/2012 17:48:00   0.453     
NOAA_8518750     10/30/2012 17:54:00   0.315     
NOAA_8518750     10/30/2012 18:00:00   0.184     
 
TankInflow                  0:00       0         
TankInflow                  07:00      2         
TankInflow                  08:00      2         
TankInflow                  09:00      0     
TankInflow                  24:00      0    
 
[REPORT]
INPUT      YES
CONTROLS   YES
SUBCATCHMENTS ALL
NODES ALL
LINKS ALL

[COORDINATES]
;;Node           X-Coord          Y-Coord         
Junction         -8239360.731     4970521.87      
Outfall          -8239548.316     4970629.052     
Tank             -8239361.746     4970538.493     


