[TITLE]
;;Project Title/Notes

[OPTIONS]
;;Option             Value
FLOW_UNITS           CMS
INFILTRATION         HORTON
FLOW_ROUTING         DYNWAVE
LINK_OFFSETS         DEPTH
MIN_SLOPE            0
ALLOW_PONDING        NO
SKIP_STEADY_STATE    NO

START_DATE           06/14/2021
START_TIME           00:00:00
REPORT_START_DATE    06/14/2021
REPORT_START_TIME    00:00:00
END_DATE             06/14/2021
END_TIME             12:00:00
SWEEP_START          01/01
SWEEP_END            12/31
DRY_DAYS             0
REPORT_STEP          00:01:00
WET_STEP             00:05:00
DRY_STEP             01:00:00
ROUTING_STEP         0:00:01 
RULE_STEP            00:00:00

INERTIAL_DAMPING     NONE
NORMAL_FLOW_LIMITED  BOTH
FORCE_MAIN_EQUATION  H-W
SURCHARGE_METHOD     SLOT
VARIABLE_STEP        0.75
LENGTHENING_STEP     0
MIN_SURFAREA         1.167
MAX_TRIALS           20
HEAD_TOLERANCE       0.0015
SYS_FLOW_TOL         5
LAT_FLOW_TOL         5
MINIMUM_STEP         0.5
THREADS              1

[EVAPORATION]
;;Data Source    Parameters
;;-------------- ----------------
CONSTANT         0.0
DRY_ONLY         NO

[JUNCTIONS]
;;Name           Elevation  MaxDepth   InitDepth  SurDepth   Aponded   
;;-------------- ---------- ---------- ---------- ---------- ----------
J0               11.895      0          0.0        2.0        0         
J1               11.706      0          0.0        2.0        0         
J2               11.516      0          0.0        2.0        0         
J3               11.327      0          0.0        2.0        0         
J4               11.137      0          0.0        2.0        0         
J5               10.948      0          0.0        2.0        0         
J6               10.758      0          0.0        2.0        0         
J7               10.569      0          0.0        2.0        0         
J8               10.379      0          0.0        2.0        0         
J9               10.189      0          0.0        2.0        0         

[OUTFALLS]
;;Name           Elevation  Type       Stage Data       Gated    Route To        
;;-------------- ---------- ---------- ---------------- -------- ----------------
Out1             10.0          FREE                          YES                       

[CONDUITS]
;;Name           From Node        To Node          Length     Roughness  InOffset   OutOffset  InitFlow   MaxFlow   
;;-------------- ---------------- ---------------- ---------- ---------- ---------- ---------- ---------- ----------
C1               J0                J1              250        0.015      0          0          0.0      0         
C2               J1                J2             1000        0.015      0          0          0      0 
C3               J2                J3               100        0.015      0          0          0      0         
C4               J3                J4               100        0.015      0          0          0      0         
C5               J4                J5               100        0.015      0          0          0      0         
C6               J5                J6             250        0.015      0          0          0      0         
C7               J6                J7               100        0.015      0          0          0      0         
C8               J7                J8               100        0.015      0          0          0      0         
C9               J8               J9               100        0.015      0          0          0      0         
C10              J9               Out1             100        0.025      0          0          0      0         

[XSECTIONS]
;;Link           Shape        Geom1            Geom2      Geom3      Geom4      Barrels    Culvert   
;;-------------- ------------ ---------------- ---------- ---------- ---------- ---------- ----------
C1               RECT_OPEN     10.5                1.5          0          0          1                    
C2               RECT_OPEN     10.5                1.5          0          0          1                    
C3               RECT_OPEN     10.5                1.5          0          0          1                    
C4               RECT_OPEN     10.5                1.5          0          0          1                    
C5               RECT_OPEN     10.5                1.5          0          0          1                    
C6               RECT_OPEN     10.5                1.5          0          0          1                    
C7               RECT_OPEN     10.5                1.5          0          0          1                    
C8               RECT_OPEN     10.5                1.5          0          0          1                    
C9               RECT_OPEN     10.5                1.5          0          0          1                    
C10              RECT_OPEN     10.5                1.5          0          0          1                    

[INFLOWS]
;;Node           Constituent      Time Series      Type     Mfactor  Sfactor  Baseline Pattern
;;-------------- ---------------- ---------------- -------- -------- -------- -------- --------
J0                FLOW             "630016810"               FLOW       

[TIMESERIES]
;;Name           Date       Time       Value     
;;-------------- ---------- ---------- ----------
630016810                   0.0       0.0  ; / 4.353e-01 
630016810                   0.01       0.0
630016810                   0.05       0.1
630016810                   12.0       0.1
630016810                   12.5       0.0

;630016810                   1         0.1 ;  1.000e-01 
;630016810                   2         0.1 ; 2.495e-01 
;630016810                   3         0.1 ; 5.017e-01 
;630016810                   4         0.1 ; 8.114e-01 
;630016810                   5         0.1 ; 1.075e+00 
;630016810                   6         0.1 ; 1.201e+00 
;630016810                   7         0.1 ; 1.185e+00 
;630016810                   8         0.1 ; 1.095e+00 
;630016810                   9         0.1 ; 1.002e+00 
;630016810                   10        0.1 ; 9.364e-01 
;630016810                   11        0.1 ; 8.508e-01 
;630016810                   12        0.1 ; 8.070e-01 
;630016810                   13        0.1 ; 7.074e-01 
;630016810                   14        0.1 ; 6.583e-01 
;630016810                   15        0.1 ; 5.727e-01 
;630016810                   16        0.1 ; 5.352e-01 
;630016810                   17        0.1 ; 4.659e-01 
;630016810                   18        0.1 ; 4.339e-01 
;630016810                   19        0.1 ; 3.503e-01 
;630016810                   20        0.1 ; 3.267e-01 
;630016810                   21        0.1 ; 2.366e-01 
;630016810                   22        0.1 ; 2.213e-01 
;630016810                   23        0.1 ; 1.228e-01 
;630016810                   24        0.1 ; 2.855e-01 
;630016810                   25        0.1 ; 5.130e-01 
;630016810                   26        0.1 ; 9.134e-01 
;630016810                   27        0.1 ; 1.495e+00 
;630016810                   28        0.1 ; 2.204e+00 
;630016810                   29        0.1 ; 2.938e+00 
;630016810                   30        0.1 ; 3.602e+00 
;630016810                   31        0.1 ; 4.138e+00 
;630016810                   32        0.1 ; 4.525e+00 
;630016810                   33        0.1 ; 4.764e+00 
;630016810                   34        0.1 ; 4.692e+00 
;630016810                   35        0.1 ; 4.457e+00 
;630016810                   36        0.1 ; 4.144e+00 
;630016810                   37        0.1 ; 3.783e+00 
;630016810                   38        0.1 ; 3.412e+00 
;630016810                   39        0.1 ; 3.059e+00 
;630016810                   40        0.1 ; 2.735e+00 
;630016810                   41        0.1 ; 2.445e+00 
;630016810                   42        0.1 ; 2.188e+00 
;630016810                   43        0.1 ; 1.961e+00 
;630016810                   44        0.1 ; 1.761e+00 
;630016810                   45        0.1 ; 1.582e+00 
;630016810                   46        0.1 ; 1.420e+00 
;630016810                   47        0.1 ; 1.273e+00 
;630016810                   48        0.0 ; 1.139e+00 

[REPORT]
;;Reporting Options
SUBCATCHMENTS ALL
NODES ALL
LINKS ALL

