[TITLE]
;;Project Title/Notes

[OPTIONS]
;;Option             Value
FLOW_UNITS           CMS
INFILTRATION         HORTON
FLOW_ROUTING         DYNWAVE
LINK_OFFSETS         DEPTH
MIN_SLOPE            0
ALLOW_PONDING        NO
SKIP_STEADY_STATE    NO

START_DATE           06/06/2021
START_TIME           00:00:00
REPORT_START_DATE    06/06/2021
REPORT_START_TIME    00:00:00
END_DATE             06/06/2021
END_TIME             10:00:00
SWEEP_START          1/1
SWEEP_END            12/31
DRY_DAYS             0
REPORT_STEP          00:01:00
WET_STEP             00:05:00
DRY_STEP             01:00:00
ROUTING_STEP         00:00:01 

INERTIAL_DAMPING     NONE
NORMAL_FLOW_LIMITED  BOTH
FORCE_MAIN_EQUATION  H-W
VARIABLE_STEP        0.75
LENGTHENING_STEP     0
MIN_SURFAREA         0
MAX_TRIALS           0
HEAD_TOLERANCE       0
SYS_FLOW_TOL         5
LAT_FLOW_TOL         5
MINIMUM_STEP         0.5
THREADS              1

[EVAPORATION]
;;Data Source    Parameters
;;-------------- ----------------
CONSTANT         0.0
DRY_ONLY         NO

[JUNCTIONS]
;;Name           Elevation  MaxDepth   InitDepth  SurDepth   Aponded   
;;-------------- ---------- ---------- ---------- ---------- ----------
J1               0.3489       4          1          1000          0         
J2               0.3489       4          1          1000          0         
J3               0.1745       4          1          1000          0    
;J3new            0.08         4          1          1000          0     

[OUTFALLS]
;;Name           Elevation  Type       Stage Data       Gated    Route To        
;;-------------- ---------- ---------- ---------------- -------- ----------------
J4               0          FREE                        NO                       

[CONDUITS]
;;Name           From Node        To Node          Length     Roughness  InOffset   OutOffset  InitFlow   MaxFlow   
;;-------------- ---------------- ---------------- ---------- ---------- ---------- ---------- ---------- ----------
C1               J1               J3               1000       0.03       0          0          1.5     0         
C2               J2               J3               1000       0.03       0          0          1.5     0         
C3               J3               J4               1000       0.03       0          0          3.0     0    
;C4new            J3new            J4               1000       0.03       0          0          3.0     0         

[XSECTIONS]
;;Link           Shape        Geom1           Geom2      Geom3      Geom4      Barrels    Culvert   
;;-------------- ------------ ---------------- ---------- ---------- ---------- ---------- ----------
;C1                CIRCULAR      5             5           0          0           1 
C1                RECT_OPEN      6             6           0          0           1                    
;C2                CIRCULAR      6             0           0          0           1    
C2                RECT_OPEN      5             5           0          0           1                  
;C3                CIRCULAR      6             0           0          0           1    
C3                RECT_OPEN      5             5           0          0           1  
;C4new                CIRCULAR      6             0           0          0           1   

[INFLOWS]
;;Node           Constituent      Time Series      Type     Mfactor  Sfactor  Baseline Pattern
;;-------------- ---------------- ---------------- -------- -------- -------- -------- --------
J1               FLOW             82309               FLOW     1.0      1.0       
J2               FLOW             80408               FLOW     1.0      1.0       

[TIMESERIES]
;;Name           Date       Time       Value     
;;-------------- ---------- ---------- ----------
82309                       0          1.5         
82309                       1.25       1.5        
82309                       1.5        2.5
82309                       3.5        2.5      
82309                       3.75       0         
82309                       12.0       0         
;
80408                       0          1.5         
80408                       0.75       1.5        
80408                       3.0        2.5        
80408                       3.25       0         
80408                       12         0    

[REPORT]
;;Reporting Options
SUBCATCHMENTS ALL
NODES ALL
LINKS ALL

[TAGS]

[MAP]
DIMENSIONS 0.000 0.000 10000.000 10000.000
Units      None

[COORDINATES]
;;Node           X-Coord            Y-Coord           
;;-------------- ------------------ ------------------
J1               566.038            6740.995          
J2               4236.707           6723.842          
J3               2418.525           5008.576          
J4               2418.525           2881.647          

[VERTICES]
;;Link           X-Coord            Y-Coord           
;;-------------- ------------------ ------------------

