[TITLE]
;;Project Title/Notes

[OPTIONS]
;;Option             Value
FLOW_UNITS           CMS
INFILTRATION         HORTON
FLOW_ROUTING         DYNWAVE
LINK_OFFSETS         DEPTH
MIN_SLOPE            0
ALLOW_PONDING        NO
SKIP_STEADY_STATE    NO

START_DATE           08/29/2023
START_TIME           00:00:00
REPORT_START_DATE    08/29/2023
REPORT_START_TIME    00:00:00
END_DATE             08/29/2023
END_TIME             00:30:00
SWEEP_START          01/01
SWEEP_END            12/31
DRY_DAYS             0
REPORT_STEP          00:00:01
WET_STEP             00:05:00
DRY_STEP             01:00:00
ROUTING_STEP         0.1
RULE_STEP            00:00:00

INERTIAL_DAMPING     NONE
NORMAL_FLOW_LIMITED  BOTH
FORCE_MAIN_EQUATION  H-W
SURCHARGE_METHOD     SLOT
VARIABLE_STEP        0.75
LENGTHENING_STEP     0
MIN_SURFAREA         1.167
MAX_TRIALS           8
HEAD_TOLERANCE       0.0015
SYS_FLOW_TOL         5
LAT_FLOW_TOL         5
MINIMUM_STEP         0.5
THREADS              1

[EVAPORATION]
;;Data Source    Parameters
;;-------------- ----------------
CONSTANT         0.0
DRY_ONLY         NO

[JUNCTIONS]
;;Name           Elevation  MaxDepth   InitDepth  SurDepth   Aponded   
;;-------------- ---------- ---------- ---------- ---------- ----------
IN               10         1          0.2        999        0         
J1               9.8        1          0.2        999        0         
J2               9.6        1          0.2        999        0         

[OUTFALLS]
;;Name           Elevation  Type       Stage Data       Gated    Route To        
;;-------------- ---------- ---------- ---------------- -------- ----------------
OUT              9.4        FREE                        NO                       

[STORAGE]
;;Name           Elev.    MaxDepth   InitDepth  Shape      Curve Name/Params            N/A      Fevap    Psi      Ksat     IMD     
;;-------------- -------- ---------- ----------- ---------- ---------------------------- -------- --------          -------- --------
SW1              9.7      1          0.2        FUNCTIONAL 0         0         5        999      0       
SW2              9.7      1          0.2        FUNCTIONAL 0         0         5        999      0       

[CONDUITS]
;;Name           From Node        To Node          Length     Roughness  InOffset   OutOffset  InitFlow   MaxFlow   
;;-------------- ---------------- ---------------- ---------- ---------- ---------- ---------- ---------- ----------
C1               IN               J1               100        0.01       0          0          0.1        0         
C2               J1               SW1              100        0.01       0          0          0.05       0         
C3               J1               SW2              100        0.01       0          0          0.05       0         
C4               SW1              SW2              100        0.01       0          0          0          0         
C5               SW1              J2               100        0.01       0          0          0.05       0         
C6               SW2              J2               100        0.01       0          0          0.05       0         
C7               J2               OUT              100        0.01       0          0          0.1        0         

[XSECTIONS]
;;Link           Shape        Geom1            Geom2      Geom3      Geom4      Barrels    Culvert   
;;-------------- ------------ ---------------- ---------- ---------- ---------- ---------- ----------
C1               RECT_CLOSED  1                1          0          0          1                    
C2               RECT_CLOSED  1                1          0          0          1                    
C3               RECT_CLOSED  1                1          0          0          1                    
C4               RECT_CLOSED  1                1          0          0          1                    
C5               RECT_CLOSED  1                1          0          0          1                    
C6               RECT_CLOSED  1                1          0          0          1                    
C7               RECT_CLOSED  1                1          0          0          1                    

[INFLOWS]
;;Node           Constituent      Time Series      Type     Mfactor  Sfactor  Baseline Pattern
;;-------------- ---------------- ---------------- -------- -------- -------- -------- --------
IN               FLOW             pressure         FLOW     1.0      1.0              

[TIMESERIES]
;;Name           Date       Time       Value     
;;-------------- ---------- ---------- ----------
pressure                    0:0        0.1       
pressure                    0:5        3.0       
pressure                    0:10       0.1       
pressure                    0:15       3.0       
pressure                    0:20       0.1       
pressure                    0:25       3.0       
pressure                    0:30       0.1       
;
non_pressure                0:0        0.1       
non_pressure                0:5        2.0       
non_pressure                0:10       0.1       
non_pressure                0:15       2.0       
non_pressure                0:20       0.1       
non_pressure                0:25       2.0       
non_pressure                0:30       0.1       

[REPORT]
;;Reporting Options
SUBCATCHMENTS ALL
NODES ALL
LINKS ALL

[TAGS]

[MAP]
DIMENSIONS 0.000 0.000 10000.000 10000.000
Units      None

[COORDINATES]
;;Node           X-Coord            Y-Coord           
;;-------------- ------------------ ------------------
IN               1000.000           6000.000          
J1               2000.000           6000.000          
J2               4000.000           6000.000          
OUT              5000.000           6000.000          
SW1              3000.000           6700.000          
SW2              3000.000           5300.000          

[VERTICES]
;;Link           X-Coord            Y-Coord           
;;-------------- ------------------ ------------------


[PROFILES]
;;Name           Links     
;;-------------- ----------
"profile_1       " C1 C2 C5 C7
