[TITLE]
;;Project Title/Notes

[OPTIONS]
;;Option             Value
FLOW_UNITS           CMS
INFILTRATION         MODIFIED_GREEN_AMPT
FLOW_ROUTING         DYNWAVE
LINK_OFFSETS         DEPTH
MIN_SLOPE            0
ALLOW_PONDING        NO
SKIP_STEADY_STATE    NO

START_DATE           03/03/2022
START_TIME           00:00:00
REPORT_START_DATE    03/03/2022
REPORT_START_TIME    00:00:00
END_DATE             03/03/2022
END_TIME             00:04:00
SWEEP_START          01/01
SWEEP_END            12/31
DRY_DAYS             0
REPORT_STEP          00:00:01
WET_STEP             00:05:00
DRY_STEP             01:00:00
ROUTING_STEP         0.1
RULE_STEP            00:00:00

INERTIAL_DAMPING     PARTIAL
NORMAL_FLOW_LIMITED  BOTH
FORCE_MAIN_EQUATION  D-W
VARIABLE_STEP        0.75
LENGTHENING_STEP     0
MIN_SURFAREA         1.167
MAX_TRIALS           8
HEAD_TOLERANCE       0.0015
SYS_FLOW_TOL         5
LAT_FLOW_TOL         5
MINIMUM_STEP         0.5
THREADS              1

[EVAPORATION]
;;Data Source    Parameters
;;-------------- ----------------
CONSTANT         0.0
DRY_ONLY         NO

[JUNCTIONS]
;;Name           Elevation  MaxDepth   InitDepth  SurDepth   Aponded   
;;-------------- ---------- ---------- ---------- ---------- ----------
1                0.30132    0.1        0.02       0.1        0         
2                0.26082    0.1        0.02       0.1        0         
3                0.26082    0.1        0.02       0.1        0         
4                0.0378     0.1        0.02       0.1        0         
5                0.0378     0.1        0.02       0.1        0         
6                0          0.5        0.02       0.5        0         

[OUTFALLS]
;;Name           Elevation  Type       Stage Data       Gated    Route To        
;;-------------- ---------- ---------- ---------------- -------- ----------------
7                0          FIXED      0.01             NO                       

[CONDUITS]
;;Name           From Node        To Node          Length     Roughness  InOffset   OutOffset  InitFlow   MaxFlow   
;;-------------- ---------------- ---------------- ---------- ---------- ---------- ---------- ---------- ----------
1                1                2                1.5        0.008      0          0          0          0         
3                3                4                8.26       0.008      0          0          0          0         
5                5                6                1.4        0.008      0          0          0          0         
6                6                7                5          0.016      0          0          0          0         

[ORIFICES]
;;Name           From Node        To Node          Type         Offset     Qcoeff     Gated    CloseTime 
;;-------------- ---------------- ---------------- ------------ ---------- ---------- -------- ----------
2                2                3                SIDE         0          2.244       NO       0         
4                4                5                SIDE         0          2.244       NO       0         

[XSECTIONS]
;;Link           Shape        Geom1            Geom2      Geom3      Geom4      Barrels    Culvert   
;;-------------- ------------ ---------------- ---------- ---------- ---------- ---------- ----------
1                CIRCULAR     0.1              0          0          0          1                    
3                CIRCULAR     0.1              0          0          0          1                    
5                CIRCULAR     0.1              0          0          0          1                    
6                CIRCULAR     0.5              0          0          0          1                    
2                CIRCULAR     0.014            0          0          0
4                CIRCULAR     0.1              0          0          0

[INFLOWS]
;;Node           Constituent      Time Series      Type     Mfactor  Sfactor  Baseline Pattern
;;-------------- ---------------- ---------------- -------- -------- -------- -------- --------
1                FLOW             ""               FLOW     1.0      1.0      0.0013  

[REPORT]
;;Reporting Options
SUBCATCHMENTS ALL
NODES ALL
LINKS ALL

[TAGS]

[MAP]
DIMENSIONS 0.000 0.000 10000.000 10000.000
Units      None

[COORDINATES]
;;Node           X-Coord            Y-Coord           
;;-------------- ------------------ ------------------
1                2000.000           5000.000          
2                2800.000           5000.000          
3                3000.000           5000.000          
4                4000.000           5000.000          
5                4200.000           5000.000          
6                5000.000           5000.000          
7                6000.000           5000.000          

[VERTICES]
;;Link           X-Coord            Y-Coord           
;;-------------- ------------------ ------------------

