[TITLE]
;;Project Title/Notes

[OPTIONS]
;;Option             Value
FLOW_UNITS           CMS
INFILTRATION         HORTON
FLOW_ROUTING         KINWAVE
LINK_OFFSETS         DEPTH
MIN_SLOPE            0
ALLOW_PONDING        NO
SKIP_STEADY_STATE    NO

START_DATE           09/04/2019
START_TIME           00:00:00
REPORT_START_DATE    09/04/2019
REPORT_START_TIME    00:00:00
END_DATE             09/04/2019
END_TIME             06:00:00
SWEEP_START          01/01
SWEEP_END            12/31
DRY_DAYS             0
REPORT_STEP          00:15:00
WET_STEP             00:05:00
DRY_STEP             01:00:00
ROUTING_STEP         0:00:30 
RULE_STEP            00:00:00

INERTIAL_DAMPING     PARTIAL
NORMAL_FLOW_LIMITED  BOTH
FORCE_MAIN_EQUATION  H-W
VARIABLE_STEP        0.75
LENGTHENING_STEP     0
MIN_SURFAREA         12.566
MAX_TRIALS           8
HEAD_TOLERANCE       0.005
SYS_FLOW_TOL         5
LAT_FLOW_TOL         5
MINIMUM_STEP         0.5
THREADS              1

[EVAPORATION]
;;Data Source    Parameters
;;-------------- ----------------
CONSTANT         0.0
DRY_ONLY         NO

[JUNCTIONS]
;;Name           Elevation  MaxDepth   InitDepth  SurDepth   Aponded   
;;-------------- ---------- ---------- ---------- ---------- ----------
1                0          0          0          0          0         
2                0          0          0          0          0         
3                0          0          0          0          0         
4                0          0          0          0          0         
5                0          0          0          0          0         
7                0          0          0          0          0         
6                0          0          0          0          0         

[OUTFALLS]
;;Name           Elevation  Type       Stage Data       Gated    Route To        
;;-------------- ---------- ---------- ---------------- -------- ----------------
8                0          FREE                        NO                       

[CONDUITS]
;;Name           From Node        To Node          Length     Roughness  InOffset   OutOffset  InitFlow   MaxFlow   
;;-------------- ---------------- ---------------- ---------- ---------- ---------- ---------- ---------- ----------
1                1                7                100        0.01       0          0          0          0         
2                2                4                3        0.01       0          0          0          0         
3                3                4                3        0.01       0          0          0          0         
4                4                6                5        0.01       0          0          0          0         
5                5                6                8        0.01       0          0          0          0       
6                6                7                81        0.01       0          0          0          0         
7                7                8                10         0.01       0          0          0          0           

[XSECTIONS]
;;Link           Shape        Geom1            Geom2      Geom3      Geom4      Barrels    Culvert   
;;-------------- ------------ ---------------- ---------- ---------- ---------- ---------- ----------
1                TRAPEZOIDAL  1                10         1          1          1                    
6                TRAPEZOIDAL  1                10         1          1          1                    
7                TRAPEZOIDAL  1                10         1          1          1                    
2                CIRCULAR     1                0          0          0          1                    
3                CIRCULAR     1                0          0          0          1                    
4                CIRCULAR     1                0          0          0          1                    
5                CIRCULAR     1                0          0          0          1                    

[REPORT]
;;Reporting Options
SUBCATCHMENTS ALL
NODES ALL
LINKS ALL

[TAGS]

[MAP]
DIMENSIONS 0.000 0.000 10000.000 10000.000
Units      None

[COORDINATES]
;;Node           X-Coord            Y-Coord           
;;-------------- ------------------ ------------------
1                737.564            6706.690          
7                2641.509           3481.990          
6                3550.600           5317.324          
2                3499.142           6706.690          
3                4614.065           6706.690          
4                3945.111           6072.041          
5                2744.425           5986.278          
8                2641.509           2555.746          

[VERTICES]
;;Link           X-Coord            Y-Coord           
;;-------------- ------------------ ------------------

