TITLE]
;;Project Title/Notes
Outfall Free Test Case

[OPTIONS]
;;Option             Value
FLOW_UNITS           CMS
INFILTRATION         HORTON
FLOW_ROUTING         DYNWAVE
LINK_OFFSETS         DEPTH
FORCE_MAIN_EQUATION  H-W
IGNORE_RAINFALL      NO
IGNORE_SNOWMELT      NO
IGNORE_GROUNDWATER   NO
IGNORE_RDII          NO
IGNORE_ROUTING       NO
IGNORE_QUALITY       NO
ALLOW_PONDING        NO
SKIP_STEADY_STATE    NO

SYS_FLOW_TOL         0.0001
LAT_FLOW_TOL         0.0001

START_DATE           06/14/2021
START_TIME           00:00:00
END_DATE             06/14/2021
END_TIME             48:00:00
REPORT_START_DATE    06/14/2021
REPORT_START_TIME    00:00:00

SWEEP_START          01/01
SWEEP_END            01/01
DRY_DAYS             0
REPORT_STEP          00:01:00

WET_STEP             00:00:01
DRY_STEP             01:00:00
ROUTING_STEP         00:00:01 
RULE_STEP            00:00:00

LENGTHENING_STEP     0
VARIABLE_STEP        1.0
MINIMUM_STEP         0.0

INERTIAL_DAMPING     NONE
NORMAL_FLOW_LIMITED  BOTH

MIN_SURFAREA         1.167
MIN_SLOPE            0
MAX_TRIALS           8
HEAD_TOLERANCE       0.0015
MINIMUM_STEP         0.5
THREADS              1
TEMPDIR              "SWMMtempdir"

[REPORT]
;;Reporting Options
SUBCATCHMENTS ALL
NODES ALL
LINKS ALL


[JUNCTIONS]
;;Name           Elevation  MaxDepth   InitDepth  SurDepth   Aponded   
;;-------------- ---------- ---------- ---------- ---------- ----------       
J01                1.75         4.0          0.25       0.5        100         
J02                1.25          3.5          0.25       0.5        100  

[OUTFALLS]
;;Name           Elevation  Type         Gated              Route To        
;;-------------- ---------- ---------- ---------------- ----------------
F03                1        NORMAL        YES                                    

[CONDUITS]
;;Name           From Node        To Node          Length     Roughness  InOffset   OutOffset  InitFlow   MaxFlow   
;;-------------- ---------------- ---------------- ---------- ---------- ---------- ---------- ---------- ----------
C01                J01              J02             3000       0.03        0          0          0.0         10   
C02                J02              F03             3000       0.03        0          0          0.0         10               

[XSECTIONS]
;;Link           Shape        Geom1            Geom2      Geom3      Geom4      Barrels    Culvert    Curve    Tsect
;;-------------- ------------ ---------------- ---------- ---------- ---------- ---------- -------- --------  ------
C01               CIRCULAR     1.2               0         0          0          1                   
C02               CIRCULAR     1.2               0         0          0          1                        

[INFLOWS]
;;Node           Constituent      Time Series      Type     Mfactor  Sfactor  Baseline Pattern
;;-------------- ---------------- ---------------- -------- -------- -------- -------- --------
J01                FLOW            630016810         FLOW     1.0      1.0      

[TIMESERIES]
;;Name           Date       Time       Value     
;;-------------- ---------- ---------- ----------
630016810                   0.0        4.353e-01 
630016810                   1          1.000e-01 
630016810                   2          2.495e-01 
630016810                   3          5.017e-01 
630016810                   4          8.114e-01 
630016810                   5          1.075e+00 
630016810                   6          1.201e+00 
630016810                   7          1.185e+00 
630016810                   8          1.095e+00 
630016810                   9          1.002e+00 
630016810                   10         9.364e-01 
630016810                   11         8.508e-01 
630016810                   12         8.070e-01 
630016810                   13         7.074e-01 
630016810                   14         6.583e-01 
630016810                   15         5.727e-01 
630016810                   16         5.352e-01 
630016810                   17         4.659e-01 
630016810                   18         4.339e-01 
630016810                   19         3.503e-01 
630016810                   20         3.267e-01 
630016810                   21         2.366e-01 
630016810                   22         2.213e-01 
630016810                   23         1.228e-01 
630016810                   24         2.855e-01 
630016810                   25         5.130e-01 
630016810                   26         9.134e-01 
630016810                   27         1.495e+00 
630016810                   28         2.204e+00 
630016810                   29         2.938e+00 
630016810                   30         3.602e+00 
630016810                   31         4.138e+00 
630016810                   32         4.525e+00 
630016810                   33         4.764e+00 
630016810                   34         4.692e+00 
630016810                   35         4.457e+00 
630016810                   36         4.144e+00 
630016810                   37         3.783e+00 
630016810                   38         3.412e+00 
630016810                   39         3.059e+00 
630016810                   40         2.735e+00 
630016810                   41         2.445e+00 
630016810                   42         2.188e+00 
630016810                   43         1.961e+00 
630016810                   44         1.761e+00 
630016810                   45         1.582e+00 
630016810                   46         1.420e+00 
630016810                   47         1.273e+00 
630016810                   48         1.139e+00 


