[TITLE]
;;Project Title/Notes
;;MODIFIED: A: making conduits open channels, B: no infiltration, C: no weirs, D: no rainfall
;; E:  INFLOW@102 = 0, F: INFLOW@1SB3 = 0, G: INFLOW@1SB1 = 0, outfall gate = no
;; I:  reduced output
;; J:  reducing system to small section around outfall
;; K:  remove overflows
;; L:  replace irregular with rectangular
;; M:   wider rectangular
Example User5 

[OPTIONS]
;;Option             Value
FLOW_UNITS           CFS
INFILTRATION         HORTON
FLOW_ROUTING         DYNWAVE
LINK_OFFSETS         DEPTH
MIN_SLOPE            0
ALLOW_PONDING        NO
SKIP_STEADY_STATE    NO

START_DATE           08/11/1998
START_TIME           00:00:00
REPORT_START_DATE    08/11/1998
REPORT_START_TIME    00:00:00
END_DATE             08/11/1998
END_TIME             04:00:00
SWEEP_START          01/01
SWEEP_END            12/31
DRY_DAYS             0
REPORT_STEP          00:01:00
WET_STEP             00:01:00
DRY_STEP             00:01:00
ROUTING_STEP         0:00:30 

INERTIAL_DAMPING     NONE
NORMAL_FLOW_LIMITED  FROUDE
FORCE_MAIN_EQUATION  H-W
VARIABLE_STEP        0.75
LENGTHENING_STEP     0
MIN_SURFAREA         12.557
MAX_TRIALS           8
HEAD_TOLERANCE       0.005
SYS_FLOW_TOL         5
LAT_FLOW_TOL         5
MINIMUM_STEP         0.5
THREADS              1

[FILES]
;;Interfacing Files

[JUNCTIONS]
;;Name           Elevation  MaxDepth   InitDepth  SurDepth   Aponded   
;;-------------- ---------- ---------- ---------- ---------- ----------
   0.10_RM          640.60     59.40      9.42        0          0         
   0.10_UP          640.70     59.30      9.32        0          0         
   0.15_RM          643.90     56.10      6.13        0          0  
   O.15_UP          644.00     56.00      6.05        0          0         
   802              645.40     54.60      4.65        0          0           
   11SB14_OF        645.50     54.50      4.56        0          0   
   SB1216_OF        647.80     52.20      2.26        0          0    
   10SB14           652.00     48.00      .00        0          0    
   9SB14            668.00     32.00      .00        0          0      
   8SB14            681.00     19.00      .00        0          0                      
           

[OUTFALLS]
;;Name           Elevation  Type       Stage Data       Gated    Route To        
;;-------------- ---------- ---------- ---------------- -------- ----------------
O.O_RM           637.8      FIXED      650              NO                      
   

[CONDUITS]
;;Name           From Node        To Node          Length     Roughness  InOffset   OutOffset  InitFlow   MaxFlow   
;;-------------- ---------------- ---------------- ---------- ---------- ---------- ---------- ---------- ----------  
   561              9SB14            10SB14           600.0      0.014      0.0        7.0        0.0        0         
   563              8SB14            10SB14           1200.0     0.014      0.0        7.0        0.0        0         
   717              SB1216_OF        11SB14_OF        630.0      0.014      0.0        0.0        0.0        0           
   0.06_NAT         0.10_RM          O.O_RM           520.0      0.014      0.0        0.0        0.0        0                 
   740pipe          10SB14           11SB14_OF        722.0      0.019      0.0        0.0        0.0        0         
   ;;740chan          10SB14           11SB14_OF        722.0      0.019      7.0        7.0        0.0        0               
   GBPIPE           11SB14_OF        802              140.0      0.02       0.0        0.0        0.0        0         
   ;;GB_OVER          11SB14_OF        802              140.0      0.02       12.5       12.04      0.0        0         
   .21NAT           802              O.15_UP          185.0      0.02       0.0        0.0        0.0        0         
   DEERWPIPE        O.15_UP          0.15_RM          75.0       0.02       0.0        0.0        0.0        0         
   ;;DEER_OVR         O.15_UP          0.15_RM          55.0       0.02       9.2        9.201      0.0        0         
   .13_NAT          0.15_RM          0.10_UP          240.0      0.02       0.0        0.0        0.0        0         
   PATH_PIPE        0.10_UP          0.10_RM          50.0       0.02       0.0        0.0        0.0        0         
   ;;PATH_OV          0.10_UP          0.10_RM          50.0       0.02       4.0        4.0        0.0        0         

[XSECTIONS]
;;Link           Shape        Geom1            Geom2      Geom3      Geom4      Barrels    Culvert   
;;-------------- ------------ ---------------- ---------- ---------- ---------- ---------- ----------                  
   561              RECT_OPEN    30.0             30.0        0          0          1    
   563              RECT_OPEN    30.0             30.0        0          0          1                                    
   717              RECT_OPEN    30.0             30.0        0          0          1            
   740pipe          RECT_OPEN    30.0             30.0        0          0          1  
;;740chan          RECT_OPEN    30.0             30.0        0          0          1                                     
   0.06_NAT         RECT_OPEN    30.0             30.0        0          0          1                                    
   GBPIPE           RECT_OPEN    30.0             30.0       0.0        0.0        1 
;;GB_OVER          RECT_OPEN    30.0             30.0        0          0          1                    
   .21NAT           RECT_OPEN    30.0             30.0        0          0          1                               
   DEERWPIPE        RECT_OPEN    30.0             30.0       0.0        0.0        1         
;;DEER_OVR         RECT_OPEN    30.0             30.0        0          0          1                    
   .13_NAT          RECT_OPEN    30.0             30.0        0          0          1                                  
   PATH_PIPE        RECT_OPEN    30.0             30.0       0.0        0.0        1 
;;PATH_OV          RECT_OPEN    30.0             30.0        0          0          1                     
                 

[TRANSECTS]
;;Transect Data in HEC-2 format
;
NC 0.021    0.035    0.023   
X1 1                 11       70       100      0.0      0.0      0.0      0        0       
GR 20       0        11.5     0.1      10       40       8        49       9.5      52      
GR 10       70       9.5      88       8        91       10       100      11.5     139.9   
GR 20       140     
;
NC 0.021    0.035    0.023   
X1 2                 11       70       100      0.0      0.0      0.0      0        0       
GR 20       0        11.5     0.1      10       40       8        49       9.5      52      
GR 10       70       9.5      88       8        91       10       100      11.5     139.9   
GR 20       140     
;
NC 0.021    0.035    0.023   
X1 3                 11       70       100      0.0      0.0      0.0      0        0       
GR 20       0        11.5     0.1      10       40       8        49       9.5      52      
GR 10       70       9.5      88       8        91       10       100      11.5     139.9   
GR 20       140     
;
NC 0.021    0.035    0.023   
X1 4                 11       70       100      0.0      0.0      0.0      0        0       
GR 20       0        11.5     0.1      10       40       8        49       9.5      52      
GR 10       70       9.5      88       8        91       10       100      11.5     139.9   
GR 20       140     
;
NC 0.021    0.035    0.023   
X1 5                 11       70       100      0.0      0.0      0.0      0        0       
GR 20       0        11.5     0.1      10       40       8        49       9.5      52      
GR 10       70       9.5      88       8        91       10       100      11.5     139.9   
GR 20       140     
;
NC 0.021    0.035    0.023   
X1 6                 11       70       100      0.0      0.0      0.0      0        0       
GR 20       0        11.5     0.1      10       40       8        49       9.5      52      
GR 10       70       9.5      88       8        91       10       100      11.5     139.9   
GR 20       140     
;
NC 0.021    0.035    0.023   
X1 7                 11       70       100      0.0      0.0      0.0      0        0       
GR 20       0        11.5     0.1      10       40       8        49       9.5      52      
GR 10       70       9.5      88       8        91       10       100      11.5     139.9   
GR 20       140     
;
NC 0.04     0.04     0.04    
X1 8                 5        5        25       0.0      0.0      0.0      0        0       
GR 15       0        10       5        0        15       10       25       15       30      
;
NC 0.04     0.04     0.04    
X1 9                 5        5        25       0.0      0.0      0.0      0        0       
GR 10       0        4        5        0        15       4        25       10       30      
;
NC 0.04     0.04     0.04    
X1 10                5        5        25       0.0      0.0      0.0      0        0       
GR 15       0        10       5        0        15       10       25       15       30      
;
NC 0.025    0.025    0.019   
X1 11                11       70       100      0.0      0.0      0.0      0        0       
GR 20       0        11.5     0.1      10       40       8        49       9.5      52      
GR 10       70       9.5      88       8        91       10       100      11.5     139.9   
GR 20       140     
;
NC 0.025    0.025    0.019   
X1 12                11       38       42       0.0      0.0      0.0      0        0       
GR 10       0        6        0.1      4        30       3        38       1        39      
GR 0        40       1        41       3        42       4        50       6        59.9    
GR 10       60      
;
NC 0.021    0.035    0.023   
X1 13                11       70       100      0.0      0.0      0.0      0        0       
GR 20       0        11.5     0.1      10       40       8        49       9.5      52      
GR 10       70       9.5      88       8        91       10       100      11.5     139.9   
GR 20       140     
;
NC 0.021    0.035    0.023   
X1 14                11       70       100      0.0      0.0      0.0      0        0       
GR 20       0        11.5     0.1      10       40       8        49       9.5      52      
GR 10       70       9.5      88       8        91       10       100      11.5     139.9   
GR 20       140     
;
NC 0.021    0.035    0.023   
X1 15                11       70       100      0.0      0.0      0.0      0        0       
GR 20       0        11.5     0.1      10       40       8        49       9.5      52      
GR 10       70       9.5      88       8        91       10       100      11.5     139.9   
GR 20       140     
;
NC 0.021    0.035    0.023   
X1 16                11       70       100      0.0      0.0      0.0      0        0       
GR 20       0        11.5     0.1      10       40       8        49       9.5      52      
GR 10       70       9.5      88       8        91       10       100      11.5     139.9   
GR 20       140     
;
NC 0.021    0.035    0.023   
X1 17                11       70       100      0.0      0.0      0.0      0        0       
GR 20       0        11.5     0.1      10       40       8        49       9.5      52      
GR 10       70       9.5      88       8        91       10       100      11.5     139.9   
GR 20       140     
;
NC 0.021    0.035    0.023   
X1 18                11       70       100      0.0      0.0      0.0      0        0       
GR 20       0        11.5     0.1      10       40       8        49       9.5      52      
GR 10       70       9.5      88       8        91       10       100      11.5     139.9   
GR 20       140     
;
NC 0.021    0.035    0.023   
X1 19                11       70       100      0.0      0.0      0.0      0        0       
GR 20       0        11.5     0.1      10       40       8        49       9.5      52      
GR 10       70       9.5      88       8        91       10       100      11.5     139.9   
GR 20       140     
;
NC 0.021    0.035    0.023   
X1 20                11       70       100      0.0      0.0      0.0      0        0       
GR 20       0        11.5     0.1      10       40       8        49       9.5      52      
GR 10       70       9.5      88       8        91       10       100      11.5     139.9   
GR 20       140     
;
NC 0.021    0.035    0.023   
X1 21                11       70       100      0.0      0.0      0.0      0        0       
GR 20       0        11.5     0.1      10       40       8        49       9.5      52      
GR 10       70       9.5      88       8        91       10       100      11.5     139.9   
GR 20       140     
;
NC 0.021    0.035    0.023   
X1 22                11       70       100      0.0      0.0      0.0      0        0       
GR 20       0        11.5     0.1      10       40       8        49       9.5      52      
GR 10       70       9.5      88       8        91       10       100      11.5     139.9   
GR 20       140     
;
NC 0.021    0.035    0.023   
X1 23                11       70       100      0.0      0.0      0.0      0        0       
GR 20       0        11.5     0.1      10       40       8        49       9.5      52      
GR 10       70       9.5      88       8        91       10       100      11.5     139.9   
GR 20       140     
;
NC 0.021    0.035    0.023   
X1 24                11       70       100      0.0      0.0      0.0      0        0       
GR 20       0        11.5     0.1      10       40       8        49       9.5      52      
GR 10       70       9.5      88       8        91       10       100      11.5     139.9   
GR 20       140     
;
NC 0.021    0.035    0.023   
X1 25                11       70       100      0.0      0.0      0.0      0        0       
GR 20       0        11.5     0.1      10       40       8        49       9.5      52      
GR 10       70       9.5      88       8        91       10       100      11.5     139.9   
GR 20       140     
;
NC 0.021    0.035    0.023   
X1 26                11       70       100      0.0      0.0      0.0      0        0       
GR 20       0        11.5     0.1      10       40       8        49       9.5      52      
GR 10       70       9.5      88       8        91       10       100      11.5     139.9   
GR 20       140     
;
NC 0.021    0.035    0.023   
X1 27                11       70       100      0.0      0.0      0.0      0        0       
GR 20       0        11.5     0.1      10       40       8        49       9.5      52      
GR 10       70       9.5      88       8        91       10       100      11.5     139.9   
GR 20       140     
;
NC 0.021    0.035    0.023   
X1 28                11       70       100      0.0      0.0      0.0      0        0       
GR 20       0        11.5     0.1      10       40       8        49       9.5      52      
GR 10       70       9.5      88       8        91       10       100      11.5     139.9   
GR 20       140     
;
NC 0.021    0.035    0.023   
X1 29                11       70       100      0.0      0.0      0.0      0        0       
GR 20       0        11.5     0.1      10       40       8        49       9.5      52      
GR 10       70       9.5      88       8        91       10       100      11.5     139.9   
GR 20       140     
;
NC 0.021    0.035    0.023   
X1 30                11       70       100      0.0      0.0      0.0      0        0       
GR 20       0        11.5     0.1      10       40       8        49       9.5      52      
GR 10       70       9.5      88       8        91       10       100      11.5     139.9   
GR 20       140     
;
NC 0.021    0.035    0.023   
X1 31                11       70       100      0.0      0.0      0.0      0        0       
GR 20       0        11.5     0.1      10       40       8        49       9.5      52      
GR 10       70       9.5      88       8        91       10       100      11.5     139.9   
GR 20       140     
;
NC 0.021    0.035    0.023   
X1 32                11       70       100      0.0      0.0      0.0      0        0       
GR 20       0        11.5     0.1      10       40       8        49       9.5      52      
GR 10       70       9.5      88       8        91       10       100      11.5     139.9   
GR 20       140     
;
NC 0.021    0.035    0.023   
X1 33                11       70       100      0.0      0.0      0.0      0        0       
GR 20       0        11.5     0.1      10       40       8        49       9.5      52      
GR 10       70       9.5      88       8        91       10       100      11.5     139.9   
GR 20       140     
;
NC 0.021    0.035    0.023   
X1 34                11       70       100      0.0      0.0      0.0      0        0       
GR 20       0        11.5     0.1      10       40       8        49       9.5      52      
GR 10       70       9.5      88       8        91       10       100      11.5     139.9   
GR 20       140     
;
NC 0.021    0.035    0.023   
X1 35                11       70       100      0.0      0.0      0.0      0        0       
GR 20       0        11.5     0.1      10       40       8        49       9.5      52      
GR 10       70       9.5      88       8        91       10       100      11.5     139.9   
GR 20       140     
;
NC 0.08     0.08     0.035   
X1 36                10       -29.2    17.5     0.0      0.0      0.0      0        0       
GR 680      -95.1    668      -95      665.89   -29.2    657.95   -3.2     657.64   0       
GR 658.31   5.1      663.73   17.5     668.05   44.9     670      90       680      90.1    
;
NC 0.08     0.08     0.035   
X1 37                9        -37.2    36.2     0.0      0.0      0.0      0        0       
GR 680      -140.1   665.8    -140     664.4    -65.5    663.05   -37.2    655.53   -5.4    
GR 654.91   0        655.54   4.5      665.89   36.2     680      36.3    
;
NC 0.08     0.08     0.035   
X1 38                10       -39.2    14.2     0.0      0.0      0.0      0        0       
GR 680      -58.1    662.3    -58      662.42   -48.3    661.97   -39.2    653.46   -4.2    
GR 652.94   0        653.44   5        656.96   14.2     662.1    40       680      40.1    
;
NC 0.085    0.085    0.035   
X1 39                11       -22      34       0.0      0.0      0.0      0        0       
GR 680      -175.1   670      -175     670      -95      668.87   -64.1    667.78   -22     
GR 660.17   0        660.36   9.2      666.78   34       670      66       672      105     
GR 680      105.1   
;
NC 0.021    0.035    0.023   
X1 40                11       70       100      0.0      0.0      0.0      0        0       
GR 20       0        11.5     0.1      10       40       8        49       9.5      52      
GR 10       70       9.5      88       8        91       10       100      11.5     139.9   
GR 20       140     
;
NC 0.021    0.035    0.023   
X1 41                11       70       100      0.0      0.0      0.0      0        0       
GR 20       0        11.5     0.1      10       40       8        49       9.5      52      
GR 10       70       9.5      88       8        91       10       100      11.5     139.9   
GR 20       140     
;
NC 0.021    0.035    0.023   
X1 42                11       70       100      0.0      0.0      0.0      0        0       
GR 20       0        11.5     0.1      10       40       8        49       9.5      52      
GR 10       70       9.5      88       8        91       10       100      11.5     139.9   
GR 20       140     
;
NC 0.021    0.035    0.023   
X1 43                11       70       100      0.0      0.0      0.0      0        0       
GR 20       0        11.5     0.1      10       40       8        49       9.5      52      
GR 10       70       9.5      88       8        91       10       100      11.5     139.9   
GR 20       140     
;
NC 0.021    0.035    0.023   
X1 44                11       70       100      0.0      0.0      0.0      0        0       
GR 20       0        11.5     0.1      10       40       8        49       9.5      52      
GR 10       70       9.5      88       8        91       10       100      11.5     139.9   
GR 20       140     
;
NC 0.021    0.035    0.023   
X1 45                11       70       100      0.0      0.0      0.0      0        0       
GR 20       0        11.5     0.1      10       40       8        49       9.5      52      
GR 10       70       9.5      88       8        91       10       100      11.5     139.9   
GR 20       140     
;
NC 0.021    0.035    0.023   
X1 46                11       70       100      0.0      0.0      0.0      0        0       
GR 20       0        11.5     0.1      10       40       8        49       9.5      52      
GR 10       70       9.5      88       8        91       10       100      11.5     139.9   
GR 20       140     
;
NC 0.021    0.035    0.023   
X1 47                11       70       100      0.0      0.0      0.0      0        0       
GR 20       0        11.5     0.1      10       40       8        49       9.5      52      
GR 10       70       9.5      88       8        91       10       100      11.5     139.9   
GR 20       140     
;
NC 0.021    0.035    0.023   
X1 48                11       70       100      0.0      0.0      0.0      0        0       
GR 20       0        11.5     0.1      10       40       8        49       9.5      52      
GR 10       70       9.5      88       8        91       10       100      11.5     139.9   
GR 20       140     
;
NC 0.021    0.035    0.023   
X1 49                11       70       100      0.0      0.0      0.0      0        0       
GR 20       0        11.5     0.1      10       40       8        49       9.5      52      
GR 10       70       9.5      88       8        91       10       100      11.5     139.9   
GR 20       140     
;
NC 0.08     0.08     0.04    
X1 50                10       -9       9        0.0      0.0      0.0      0        0       
GR 690      -66      681      -65      680      -25      678      -15      676      -9      
GR 675      0        676      9        678      75       680      95       690      96      
;
NC 0.021    0.035    0.023   
X1 51                11       70       100      0.0      0.0      0.0      0        0       
GR 20       0        11.5     0.1      10       40       8        49       9.5      52      
GR 10       70       9.5      88       8        91       10       100      11.5     139.9   
GR 20       140     
;
NC 0.021    0.035    0.023   
X1 52                11       70       100      0.0      0.0      0.0      0        0       
GR 20       0        11.5     0.1      10       40       8        49       9.5      52      
GR 10       70       9.5      88       8        91       10       100      11.5     139.9   
GR 20       140     
;
NC 0.021    0.035    0.023   
X1 53                11       70       100      0.0      0.0      0.0      0        0       
GR 20       0        11.5     0.1      10       40       8        49       9.5      52      
GR 10       70       9.5      88       8        91       10       100      11.5     139.9   
GR 20       140     
;
NC 0.021    0.035    0.023   
X1 54                11       70       100      0.0      0.0      0.0      0        0       
GR 20       0        11.5     0.1      10       40       8        49       9.5      52      
GR 10       70       9.5      88       8        91       10       100      11.5     139.9   
GR 20       140     
;
NC 0.021    0.035    0.023   
X1 55                11       70       100      0.0      0.0      0.0      0        0       
GR 20       0        11.5     0.1      10       40       8        49       9.5      52      
GR 10       70       9.5      88       8        91       10       100      11.5     139.9   
GR 20       140     
;
NC 0.021    0.035    0.023   
X1 56                11       70       100      0.0      0.0      0.0      0        0       
GR 20       0        11.5     0.1      10       40       8        49       9.5      52      
GR 10       70       9.5      88       8        91       10       100      11.5     139.9   
GR 20       140     
;
NC 0.021    0.035    0.023   
X1 57                11       70       100      0.0      0.0      0.0      0        0       
GR 20       0        11.5     0.1      10       40       8        49       9.5      52      
GR 10       70       9.5      88       8        91       10       100      11.5     139.9   
GR 20       140     
;
NC 0.021    0.035    0.023   
X1 58                11       70       100      0.0      0.0      0.0      0        0       
GR 20       0        11.5     0.1      10       40       8        49       9.5      52      
GR 10       70       9.5      88       8        91       10       100      11.5     139.9   
GR 20       140     
;
NC 0.021    0.035    0.023   
X1 59                11       70       100      0.0      0.0      0.0      0        0       
GR 20       0        11.5     0.1      10       40       8        49       9.5      52      
GR 10       70       9.5      88       8        91       10       100      11.5     139.9   
GR 20       140     
;
NC 0.021    0.035    0.023   
X1 60                11       70       100      0.0      0.0      0.0      0        0       
GR 20       0        11.5     0.1      10       40       8        49       9.5      52      
GR 10       70       9.5      88       8        91       10       100      11.5     139.9   
GR 20       140     
;
NC 0.021    0.035    0.023   
X1 61                11       70       100      0.0      0.0      0.0      0        0       
GR 20       0        11.5     0.1      10       40       8        49       9.5      52      
GR 10       70       9.5      88       8        91       10       100      11.5     139.9   
GR 20       140     
;
NC 0.021    0.035    0.023   
X1 62                11       70       100      0.0      0.0      0.0      0        0       
GR 20       0        11.5     0.1      10       40       8        49       9.5      52      
GR 10       70       9.5      88       8        91       10       100      11.5     139.9   
GR 20       140     
;
NC 0.021    0.035    0.023   
X1 63                11       70       100      0.0      0.0      0.0      0        0       
GR 20       0        11.5     0.1      10       40       8        49       9.5      52      
GR 10       70       9.5      88       8        91       10       100      11.5     139.9   
GR 20       140     
;
NC 0.021    0.035    0.023   
X1 64                11       70       100      0.0      0.0      0.0      0        0       
GR 20       0        11.5     0.1      10       40       8        49       9.5      52      
GR 10       70       9.5      88       8        91       10       100      11.5     139.9   
GR 20       140     
;
NC 0.021    0.035    0.023   
X1 65                11       70       100      0.0      0.0      0.0      0        0       
GR 20       0        11.5     0.1      10       40       8        49       9.5      52      
GR 10       70       9.5      88       8        91       10       100      11.5     139.9   
GR 20       140     
;
NC 0.021    0.035    0.023   
X1 66                11       70       100      0.0      0.0      0.0      0        0       
GR 20       0        11.5     0.1      10       40       8        49       9.5      52      
GR 10       70       9.5      88       8        91       10       100      11.5     139.9   
GR 20       140     
;
NC 0.021    0.035    0.023   
X1 67                11       70       100      0.0      0.0      0.0      0        0       
GR 20       0        11.5     0.1      10       40       8        49       9.5      52      
GR 10       70       9.5      88       8        91       10       100      11.5     139.9   
GR 20       140     
;
NC 0.021    0.035    0.023   
X1 68                11       70       100      0.0      0.0      0.0      0        0       
GR 20       0        11.5     0.1      10       40       8        49       9.5      52      
GR 10       70       9.5      88       8        91       10       100      11.5     139.9   
GR 20       140     
;
NC 0.021    0.035    0.023   
X1 69                11       70       100      0.0      0.0      0.0      0        0       
GR 20       0        11.5     0.1      10       40       8        49       9.5      52      
GR 10       70       9.5      88       8        91       10       100      11.5     139.9   
GR 20       140     
;
NC 0.021    0.035    0.023   
X1 70                11       70       100      0.0      0.0      0.0      0        0       
GR 20       0        11.5     0.1      10       40       8        49       9.5      52      
GR 10       70       9.5      88       8        91       10       100      11.5     139.9   
GR 20       140     
;
NC 0.021    0.035    0.023   
X1 71                11       70       100      0.0      0.0      0.0      0        0       
GR 20       0        11.5     0.1      10       40       8        49       9.5      52      
GR 10       70       9.5      88       8        91       10       100      11.5     139.9   
GR 20       140     
;
NC 0.021    0.035    0.023   
X1 72                11       70       100      0.0      0.0      0.0      0        0       
GR 20       0        11.5     0.1      10       40       8        49       9.5      52      
GR 10       70       9.5      88       8        91       10       100      11.5     139.9   
GR 20       140     
;
NC 0.021    0.035    0.023   
X1 73                11       70       100      0.0      0.0      0.0      0        0       
GR 20       0        11.5     0.1      10       40       8        49       9.5      52      
GR 10       70       9.5      88       8        91       10       100      11.5     139.9   
GR 20       140     