[TITLE]
;;Project Title/Notes

[OPTIONS]
;;Option             Value
FLOW_UNITS           CMS
INFILTRATION         HORTON
FLOW_ROUTING         DYNWAVE
LINK_OFFSETS         DEPTH
MIN_SLOPE            0
ALLOW_PONDING        NO
SKIP_STEADY_STATE    NO

START_DATE           06/14/2021
START_TIME           00:00:00
REPORT_START_DATE    06/14/2021
REPORT_START_TIME    00:00:00
END_DATE             06/14/2021
END_TIME             03:30:00
SWEEP_START          01/01
SWEEP_END            12/31
DRY_DAYS             0
REPORT_STEP          00:01:00
WET_STEP             00:05:00
DRY_STEP             01:00:00
ROUTING_STEP         0:00:01 
RULE_STEP            00:00:00

INERTIAL_DAMPING     NONE
NORMAL_FLOW_LIMITED  BOTH
FORCE_MAIN_EQUATION  H-W
SURCHARGE_METHOD     SLOT
VARIABLE_STEP        0.75
LENGTHENING_STEP     0
MIN_SURFAREA         1.167
MAX_TRIALS           20
HEAD_TOLERANCE       0.0015
SYS_FLOW_TOL         5
LAT_FLOW_TOL         5
MINIMUM_STEP         0.5
THREADS              1

[EVAPORATION]
;;Data Source    Parameters
;;-------------- ----------------
CONSTANT         0.0
DRY_ONLY         NO

[JUNCTIONS]
;;Name           Elevation  MaxDepth   InitDepth  SurDepth   Aponded   
;;-------------- ---------- ---------- ---------- ---------- ----------
;; upstream branch a
Ja0               11.995      0          0.0        2.0        0    
Ja1               11.8055     0          0.0        1000.0         0 
Ja2               11.616      0          0.0        1000.0         0  
Ja3               11.2265     0          0.0        1000.0         0  
Ja4               11.237      0          0.0        1000.0         0  
;; upstream branch b
Jb0               11.795      0          0.0        2.0        0    
Jb1               11.6055     0          0.0        1000.0         0 
Jb2               11.416      0          0.0        1000.0         0  
Jb3               11.2265     0          0.0        1000.0         0  
Jb4               11.037      0          0.0        1000.0         0 
;; downsream branch c
Jc5               10.9475     0          0.0        1000.0         0  
Jc6               10.758      0          0.0        1000.0         0  
Jc7               10.5685     0          0.0        1000.0         0  
Jc8               10.379      0          0.0        1000.0         0  
Jc9               10.1895     0          0.0        1000.0         0   

[OUTFALLS]
;;Name           Elevation  Type       Stage Data       Gated    Route To        
;;-------------- ---------- ---------- ---------------- -------- ----------------
Out1             10.0          FREE                      NO                   

[CONDUITS]
;;Name           From Node        To Node          Length     Roughness  InOffset   OutOffset  InitFlow   MaxFlow   
;;-------------- ---------------- ---------------- ---------- ---------- ---------- ---------- ---------- ----------
;; upstream branch a
Ca1               Ja0               Ja1                100           0.015      0          0          0.0      0      
Ca2               Ja1               Ja2                100           0.015      0          0          0.0      0   
Ca3               Ja2               Ja3                100           0.015      0          0          0.0      0   
Ca4               Ja3               Ja4                100           0.015      0          0          0.0      0   
Ca5               Ja4               Jc5                100           0.015      0          0          0.0      0   
;; upstream branch b
Cb1               Jb0               Jb1                100           0.015      0          0          0.0      0      
Cb2               Jb1               Jb2                100           0.015      0          0          0.0      0   
Cb3               Jb2               Jb3                100           0.015      0          0          0.0      0   
Cb4               Jb3               Jb4                100           0.015      0          0          0.0      0   
Cb5               Jb4               Jc5                100           0.015      0          0          0.0      0   
;; downstream branch c
Cc6               Jc5               Jc6                100           0.015      0          0          0.0      0   
Cc7               Jc6               Jc7                100           0.015      0          0          0.0      0   
Cc8               Jc7               Jc8                100           0.015      0          0          0.0      0   
Cc9               Jc8               Jc9                100           0.015      0          0          0.0      0   
Cc10              Jc9               Out1               100           0.015      0          0          0.0      0       


[XSECTIONS]
;;Link           Shape        Geom1            Geom2      Geom3      Geom4      Barrels    Culvert   
;;-------------- ------------ ---------------- ---------- ---------- ---------- ---------- ----------
;; upstream branch a
Ca1               CIRCULAR       1.5             0          0          0          1  
Ca2               CIRCULAR       1.5             0          0          0          1                       
Ca3               CIRCULAR       1.5             0          0          0          1         
Ca4               CIRCULAR       1.5             0          0          0          1  
Ca5               CIRCULAR       1.5             0          0          0          1  
;; upstream branch b
Cb1               CIRCULAR       1.5             0          0          0          1  
Cb2               CIRCULAR       1.5             0          0          0          1                       
Cb3               CIRCULAR       1.5             0          0          0          1         
Cb4               CIRCULAR       1.5             0          0          0          1  
Cb5               CIRCULAR       1.5             0          0          0          1  
;; downstream branch c
Cc6               CIRCULAR       2.0             0          0          0          1  
Cc7               CIRCULAR       2.0             0          0          0          1  
Cc8               CIRCULAR       2.0             0          0          0          1  
Cc9               CIRCULAR       2.0             0          0          0          1  
Cc10              CIRCULAR       2.0             0          0          0          1      

[INFLOWS]
;;Node           Constituent      Time Series      Type     Mfactor  Sfactor  Baseline Pattern
;;-------------- ---------------- ---------------- -------- -------- -------- -------- --------
Ja0                FLOW             "630016810"               FLOW       
Jb0                FLOW             "730016810"               FLOW     

[TIMESERIES]
;;Name           Date       Time       Value     
;;-------------- ---------- ---------- ----------
630016810                   0.0        0.0  ; / 4.353e-01 
630016810                   0.01       0.0
630016810                   0.05       0.1
630016810                   2.0        0.1
630016810                   2.10       0.0
630016810                   12.5       0.0
;;
730016810                   0.0        0.0  ; / 4.353e-01 
730016810                   0.01       0.0
730016810                   0.15       0.08
730016810                   1.9        0.08
730016810                   2.10       0.0
730016810                   12.5       0.0

[REPORT]
;;Reporting Options
SUBCATCHMENTS ALL
NODES ALL
LINKS ALL

